"""
version: dme_24
Kaiser, E.W., Wallington, T.J., Hurley, M. D., Platz, J., Curran, H. J., Pitz, W. J., and Westbrook, C. K.,
"Experimental and Modeling Study of Premixed Atmospheric-Pressure Dimethyl Ether-Air Flames",
Journal of Physical Chemistry, A 104, No. 35, 8194-8206, 2000;
Lawrence Livermore National Laboratory, Livermore, CA, UCRL-JC-136123
Last modified: Aug 19, 1999.
UCRL-WEB-204236
Review and release date: May 19, 2004.

Kaiser, E.W., Wallington, T.J., Hurley, M. D., Platz, J., Curran, H. J., Pitz, W. J., and Westbrook, C. K.,
"Experimental and Modeling Study of Premixed Atmospheric-Pressure Dimethyl Ether-Air Flames",
Journal of Physical Chemistry, A 104, No. 35, 8194-8206, 2000;
Lawrence Livermore National Laboratory, Livermore, CA, UCRL-JC-136123
UCRL-WEB-204236
Review and release date: May 19, 2004.

79 species and 660 reactions
"""

units(length='cm', time='s', quantity='mol', act_energy='cal/mol')

ideal_gas(name='GAS',
          elements="H C O N",
          species="""H             H2            O             O2
                     OH            H2O           N2            CO
                     HCO           CO2           CH3           CH4
                     HO2           H2O2          CH2O          CH3O
                     C2H6          C2H4          C2H5          CH2
                     CH            C2H           C2H2          C2H3
                     CH3OH         CH2OH         CH2CO         HCCO
                     C2H5OH        PC2H4OH       SC2H4OH       CH3CO
                     CH2CHO        CH3CHO        CH3COCH3      CH3COCH2
                     C2H5CHO       C2H5CO        C2H5O         CH3O2
                     C2H5O2        CH3O2H        C2H5O2H       C2H3O1-2
                     CH3CO2        C2H4O1-2      C2H4O2H       O2C2H4OH
                     CH3CO3        CH3CO3H       C2H3CO        C2H3CHO
                     CH3COCH2O2    CH3COCH2O2H   CH3COCH2O     HCO3H
                     HCO3          HCO2          O2C2H4O2H     CH2(S)
                     CH3OCH3       CH3OCH2       CH3OCH2O2     CH2OCH2O2H
                     CH3OCH2O2H    CH3OCH2O      O2CH2OCH2O2H  HO2CH2OCHO
                     OCH2OCHO      HOCH2OCO      HOCH2O        HCO2H
                     CH3OCHO       CH3OCO        CH2OCHO       CH3OCH2OH
                     HOCH2O2H      OCH2O2H       HOCH2O2""",
          reactions='all',
          transport='Mix',
          initial_state=state(temperature=300.0, pressure=OneAtm))

#-------------------------------------------------------------------------------
# Species data
#-------------------------------------------------------------------------------

species(name='H',
        atoms='H:1',
        thermo=(NASA([300.00, 1000.00],
                     [ 2.50000000E+00,  0.00000000E+00,  0.00000000E+00,
                       0.00000000E+00,  0.00000000E+00,  2.54716300E+04,
                      -4.60117600E-01]),
                NASA([1000.00, 5000.00],
                     [ 2.50000000E+00,  0.00000000E+00,  0.00000000E+00,
                       0.00000000E+00,  0.00000000E+00,  2.54716300E+04,
                      -4.60117600E-01])),
        transport=gas_transport(geom='atom',
                                diam=2.05,
                                well_depth=145.0),
        note='120186')

species(name='H2',
        atoms='H:2',
        thermo=(NASA([300.00, 1000.00],
                     [ 3.29812400E+00,  8.24944200E-04, -8.14301500E-07,
                      -9.47543400E-11,  4.13487200E-13, -1.01252100E+03,
                      -3.29409400E+00]),
                NASA([1000.00, 5000.00],
                     [ 2.99142300E+00,  7.00064400E-04, -5.63382900E-08,
                      -9.23157800E-12,  1.58275200E-15, -8.35034000E+02,
                      -1.35511000E+00])),
        transport=gas_transport(geom='linear',
                                diam=2.92,
                                well_depth=38.0,
                                polar=0.79,
                                rot_relax=280.0),
        note='121286')

species(name='O',
        atoms='O:1',
        thermo=(NASA([300.00, 1000.00],
                     [ 2.94642900E+00, -1.63816600E-03,  2.42103200E-06,
                      -1.60284300E-09,  3.89069600E-13,  2.91476400E+04,
                       2.96399500E+00]),
                NASA([1000.00, 5000.00],
                     [ 2.54206000E+00, -2.75506200E-05, -3.10280300E-09,
                       4.55106700E-12, -4.36805200E-16,  2.92308000E+04,
                       4.92030800E+00])),
        transport=gas_transport(geom='atom',
                                diam=2.75,
                                well_depth=80.0),
        note='120186')

species(name='O2',
        atoms='O:2',
        thermo=(NASA([300.00, 1000.00],
                     [ 3.21293600E+00,  1.12748600E-03, -5.75615000E-07,
                       1.31387700E-09, -8.76855400E-13, -1.00524900E+03,
                       6.03473800E+00]),
                NASA([1000.00, 5000.00],
                     [ 3.69757800E+00,  6.13519700E-04, -1.25884200E-07,
                       1.77528100E-11, -1.13643500E-15, -1.23393000E+03,
                       3.18916600E+00])),
        transport=gas_transport(geom='linear',
                                diam=3.458,
                                well_depth=107.4,
                                polar=1.6,
                                rot_relax=3.8),
        note='121386')

species(name='OH',
        atoms='H:1 O:1',
        thermo=(NASA([300.00, 1357.00],
                     [ 3.43586219E+00,  2.02235804E-04, -1.13546412E-07,
                       2.42445149E-10, -7.43651031E-14,  3.74321252E+03,
                       2.45014127E+00]),
                NASA([1357.00, 5000.00],
                     [ 2.62599754E+00,  1.31992406E-03, -3.59724670E-07,
                       4.25630800E-11, -1.82048016E-15,  4.12085374E+03,
                       7.10667307E+00])),
        transport=gas_transport(geom='linear',
                                diam=2.75,
                                well_depth=80.0),
        note='8/12/99therm')

species(name='H2O',
        atoms='H:2 O:1',
        thermo=(NASA([300.00, 1000.00],
                     [ 3.38684200E+00,  3.47498200E-03, -6.35469600E-06,
                       6.96858100E-09, -2.50658800E-12, -3.02081100E+04,
                       2.59023300E+00]),
                NASA([1000.00, 5000.00],
                     [ 2.67214600E+00,  3.05629300E-03, -8.73026000E-07,
                       1.20099600E-10, -6.39161800E-15, -2.98992100E+04,
                       6.86281700E+00])),
        transport=gas_transport(geom='nonlinear',
                                diam=2.605,
                                well_depth=572.4,
                                dipole=1.844,
                                rot_relax=4.0),
        note='20387')

species(name='N2',
        atoms='N:2',
        thermo=(NASA([300.00, 1000.00],
                     [ 3.29867700E+00,  1.40824000E-03, -3.96322200E-06,
                       5.64151500E-09, -2.44485500E-12, -1.02090000E+03,
                       3.95037200E+00]),
                NASA([1000.00, 5000.00],
                     [ 2.92664000E+00,  1.48797700E-03, -5.68476100E-07,
                       1.00970400E-10, -6.75335100E-15, -9.22797700E+02,
                       5.98052800E+00])),
        transport=gas_transport(geom='linear',
                                diam=3.621,
                                well_depth=97.53,
                                polar=1.76,
                                rot_relax=4.0),
        note='121286')

species(name='CO',
        atoms='C:1 O:1',
        thermo=(NASA([300.00, 1000.00],
                     [ 3.26245200E+00,  1.51194100E-03, -3.88175500E-06,
                       5.58194400E-09, -2.47495100E-12, -1.43105400E+04,
                       4.84889700E+00]),
                NASA([1000.00, 5000.00],
                     [ 3.02507800E+00,  1.44268900E-03, -5.63082800E-07,
                       1.01858100E-10, -6.91095200E-15, -1.42683500E+04,
                       6.10821800E+00])),
        transport=gas_transport(geom='linear',
                                diam=3.65,
                                well_depth=98.1,
                                polar=1.95,
                                rot_relax=1.8),
        note='121286')

species(name='HCO',
        atoms='C:1 H:1 O:1',
        thermo=(NASA([300.00, 1000.00],
                     [ 2.89833000E+00,  6.19914700E-03, -9.62308400E-06,
                       1.08982500E-08, -4.57488500E-12,  4.15992200E+03,
                       8.98361400E+00]),
                NASA([1000.00, 5000.00],
                     [ 3.55727100E+00,  3.34557300E-03, -1.33500600E-06,
                       2.47057300E-10, -1.71385100E-14,  3.91632400E+03,
                       5.55229900E+00])),
        transport=gas_transport(geom='nonlinear',
                                diam=3.59,
                                well_depth=498.0),
        note='121286')

species(name='CO2',
        atoms='C:1 O:2',
        thermo=(NASA([300.00, 1000.00],
                     [ 2.27572500E+00,  9.92207200E-03, -1.04091100E-05,
                       6.86668700E-09, -2.11728000E-12, -4.83731400E+04,
                       1.01884900E+01]),
                NASA([1000.00, 5000.00],
                     [ 4.45362300E+00,  3.14016900E-03, -1.27841100E-06,
                       2.39399700E-10, -1.66903300E-14, -4.89669600E+04,
                      -9.55395900E-01])),
        transport=gas_transport(geom='linear',
                                diam=3.763,
                                well_depth=244.0,
                                polar=2.65,
                                rot_relax=2.1),
        note='121286')

species(name='CH3',
        atoms='C:1 H:3',
        thermo=(NASA([300.00, 1000.00],
                     [ 2.43044300E+00,  1.11241000E-02, -1.68022000E-05,
                       1.62182900E-08, -5.86495300E-12,  1.64237800E+04,
                       6.78979400E+00]),
                NASA([1000.00, 5000.00],
                     [ 2.84405200E+00,  6.13797400E-03, -2.23034500E-06,
                       3.78516100E-10, -2.45215900E-14,  1.64378100E+04,
                       5.45269700E+00])),
        transport=gas_transport(geom='linear',
                                diam=3.8,
                                well_depth=144.0),
        note='121286')

species(name='CH4',
        atoms='C:1 H:4',
        thermo=(NASA([300.00, 1000.00],
                     [ 7.78741500E-01,  1.74766800E-02, -2.78340900E-05,
                       3.04970800E-08, -1.22393100E-11, -9.82522900E+03,
                       1.37221900E+01]),
                NASA([1000.00, 5000.00],
                     [ 1.68347900E+00,  1.02372400E-02, -3.87512900E-06,
                       6.78558500E-10, -4.50342300E-14, -1.00807900E+04,
                       9.62339500E+00])),
        transport=gas_transport(geom='nonlinear',
                                diam=3.746,
                                well_depth=141.4,
                                polar=2.6,
                                rot_relax=13.0),
        note='121286')

species(name='HO2',
        atoms='H:1 O:2',
        thermo=(NASA([300.00, 1390.00],
                     [ 3.18310656E+00,  3.66767950E-03, -9.32385122E-07,
                      -3.25852919E-10,  1.51139912E-13,  8.09181013E+02,
                       8.39371099E+00]),
                NASA([1390.00, 5000.00],
                     [ 4.10547423E+00,  2.38452835E-03, -8.06347989E-07,
                       1.24191723E-10, -7.16400108E-15,  3.98127689E+02,
                       3.12515836E+00])),
        transport=gas_transport(geom='nonlinear',
                                diam=3.458,
                                well_depth=107.4,
                                rot_relax=1.0),
        note='8/12/99therm')

species(name='H2O2',
        atoms='H:2 O:2',
        thermo=(NASA([300.00, 1000.00],
                     [ 3.38875400E+00,  6.56922600E-03, -1.48501300E-07,
                      -4.62580600E-09,  2.47151500E-12, -1.76631500E+04,
                       6.78536300E+00]),
                NASA([1000.00, 5000.00],
                     [ 4.57316700E+00,  4.33613600E-03, -1.47468900E-06,
                       2.34890400E-10, -1.43165400E-14, -1.80069600E+04,
                       5.01137000E-01])),
        transport=gas_transport(geom='nonlinear',
                                diam=3.458,
                                well_depth=107.4,
                                rot_relax=3.8),
        note='120186')

species(name='CH2O',
        atoms='C:1 H:2 O:1',
        thermo=(NASA([300.00, 1000.00],
                     [ 1.65273100E+00,  1.26314400E-02, -1.88816800E-05,
                       2.05003100E-08, -8.41323700E-12, -1.48654000E+04,
                       1.37848200E+01]),
                NASA([1000.00, 5000.00],
                     [ 2.99560600E+00,  6.68132100E-03, -2.62895500E-06,
                       4.73715300E-10, -3.21251700E-14, -1.53203700E+04,
                       6.91257200E+00])),
        transport=gas_transport(geom='nonlinear',
                                diam=3.59,
                                well_depth=498.0,
                                rot_relax=2.0),
        note='121286')

species(name='CH3O',
        atoms='C:1 H:3 O:1',
        thermo=(NASA([300.00, 1000.00],
                     [ 2.10620400E+00,  7.21659500E-03,  5.33847200E-06,
                      -7.37763600E-09,  2.07561100E-12,  9.78601100E+02,
                       1.31521800E+01]),
                NASA([1000.00, 3000.00],
                     [ 3.77080000E+00,  7.87149700E-03, -2.65638400E-06,
                       3.94443100E-10, -2.11261600E-14,  1.27832500E+02,
                       2.92957500E+00])),
        transport=gas_transport(geom='nonlinear',
                                diam=3.69,
                                well_depth=417.0,
                                dipole=1.7,
                                rot_relax=2.0),
        note='121686')

species(name='C2H6',
        atoms='C:2 H:6',
        thermo=(NASA([300.00, 1000.00],
                     [ 1.46253900E+00,  1.54946700E-02,  5.78050700E-06,
                      -1.25783200E-08,  4.58626700E-12, -1.12391800E+04,
                       1.44322900E+01]),
                NASA([1000.00, 4000.00],
                     [ 4.82593800E+00,  1.38404300E-02, -4.55725900E-06,
                       6.72496700E-10, -3.59816100E-14, -1.27177900E+04,
                      -5.23950700E+00])),
        transport=gas_transport(geom='nonlinear',
                                diam=4.35,
                                well_depth=247.5,
                                rot_relax=1.5),
        note='121686')

species(name='C2H4',
        atoms='C:2 H:4',
        thermo=(NASA([300.00, 1000.00],
                     [-8.61488000E-01,  2.79616300E-02, -3.38867700E-05,
                       2.78515200E-08, -9.73787900E-12,  5.57304600E+03,
                       2.42114900E+01]),
                NASA([1000.00, 5000.00],
                     [ 3.52841900E+00,  1.14851800E-02, -4.41838500E-06,
                       7.84460100E-10, -5.26684800E-14,  4.42828900E+03,
                       2.23038900E+00])),
        transport=gas_transport(geom='nonlinear',
                                diam=3.496,
                                well_depth=238.4,
                                rot_relax=1.5),
        note='121286')

species(name='C2H5',
        atoms='C:2 H:5',
        thermo=(NASA([300.00, 1000.00],
                     [ 2.69070200E+00,  8.71913300E-03,  4.41983900E-06,
                       9.33870300E-10, -3.92777300E-12,  1.28704000E+04,
                       1.21382000E+01]),
                NASA([1000.00, 5000.00],
                     [ 7.19048000E+00,  6.48407700E-03, -6.42806500E-07,
                      -2.34787900E-10,  3.88087700E-14,  1.06745500E+04,
                      -1.47808900E+01])),
        transport=gas_transport(geom='nonlinear',
                                diam=4.35,
                                well_depth=247.5,
                                rot_relax=1.5),
        note='12387')

species(name='CH2',
        atoms='C:1 H:2',
        thermo=(NASA([250.00, 1000.00],
                     [ 3.76223700E+00,  1.15981900E-03,  2.48958500E-07,
                       8.80083600E-10, -7.33243500E-13,  4.53679100E+04,
                       1.71257800E+00]),
                NASA([1000.00, 4000.00],
                     [ 3.63640800E+00,  1.93305700E-03, -1.68701600E-07,
                      -1.00989900E-10,  1.80825600E-14,  4.53413400E+04,
                       2.15656100E+00])),
        transport=gas_transport(geom='linear',
                                diam=3.8,
                                well_depth=144.0),
        note='120186')

species(name='CH',
        atoms='C:1 H:1',
        thermo=(NASA([300.00, 1000.00],
                     [ 3.20020200E+00,  2.07287600E-03, -5.13443100E-06,
                       5.73389000E-09, -1.95553300E-12,  7.04525900E+04,
                       3.33158800E+00]),
                NASA([1000.00, 5000.00],
                     [ 2.19622300E+00,  2.34038100E-03, -7.05820100E-07,
                       9.00758200E-11, -3.85504000E-15,  7.08672300E+04,
                       9.17837300E+00])),
        transport=gas_transport(geom='linear',
                                diam=2.75,
                                well_depth=80.0),
        note='121286')

species(name='C2H',
        atoms='C:2 H:1',
        thermo=(NASA([300.00, 1000.00],
                     [ 2.73770400E+00,  8.04844600E-03, -9.24431000E-06,
                       6.52525900E-09, -1.93958000E-12,  6.68381300E+04,
                       7.30022000E+00]),
                NASA([1000.00, 4000.00],
                     [ 3.98636700E+00,  3.14312300E-03, -1.26724300E-06,
                       2.92436300E-10, -2.71632000E-14,  6.65588400E+04,
                       1.19106300E+00])),
        transport=gas_transport(geom='linear',
                                diam=3.721,
                                well_depth=265.3,
                                rot_relax=2.5),
        note='81193')

species(name='C2H2',
        atoms='C:2 H:2',
        thermo=(NASA([300.00, 1000.00],
                     [ 2.01356200E+00,  1.51904500E-02, -1.61631900E-05,
                       9.07899200E-09, -1.91274600E-12,  2.61244400E+04,
                       8.80537800E+00]),
                NASA([1000.00, 5000.00],
                     [ 4.43677000E+00,  5.37603900E-03, -1.91281700E-06,
                       3.28637900E-10, -2.15671000E-14,  2.56676600E+04,
                      -2.80033800E+00])),
        transport=gas_transport(geom='linear',
                                diam=3.721,
                                well_depth=265.3,
                                rot_relax=2.5),
        note='121386')

species(name='C2H3',
        atoms='C:2 H:3',
        thermo=(NASA([300.00, 1000.00],
                     [ 2.45927600E+00,  7.37147600E-03,  2.10987300E-06,
                      -1.32164200E-09, -1.18478400E-12,  3.33522500E+04,
                       1.15562000E+01]),
                NASA([1000.00, 5000.00],
                     [ 5.93346800E+00,  4.01774600E-03, -3.96674000E-07,
                      -1.44126700E-10,  2.37864400E-14,  3.18543500E+04,
                      -8.53031300E+00])),
        transport=gas_transport(geom='nonlinear',
                                diam=3.721,
                                well_depth=265.3,
                                rot_relax=1.0),
        note='12787')

species(name='CH3OH',
        atoms='C:1 H:4 O:1',
        thermo=(NASA([300.00, 1000.00],
                     [ 2.66011500E+00,  7.34150800E-03,  7.17005100E-06,
                      -8.79319400E-09,  2.39057000E-12, -2.53534800E+04,
                       1.12326300E+01]),
                NASA([1000.00, 5000.00],
                     [ 4.02906100E+00,  9.37659300E-03, -3.05025400E-06,
                       4.35879300E-10, -2.22472300E-14, -2.61579100E+04,
                       2.37819600E+00])),
        transport=gas_transport(geom='nonlinear',
                                diam=3.626,
                                well_depth=481.8,
                                dipole=1.7,
                                rot_relax=1.0),
        note='121686')

species(name='CH2OH',
        atoms='C:1 H:3 O:1',
        thermo=(NASA([250.00, 1000.00],
                     [ 2.86262800E+00,  1.00152700E-02, -5.28543600E-07,
                      -5.13854000E-09,  2.24604100E-12, -3.34967900E+03,
                       1.03979400E+01]),
                NASA([1000.00, 4000.00],
                     [ 6.32752000E+00,  3.60827100E-03, -3.20154700E-07,
                      -1.93875000E-10,  3.50970500E-14, -4.47450900E+03,
                      -8.32936600E+00])),
        transport=gas_transport(geom='nonlinear',
                                diam=3.69,
                                well_depth=417.0,
                                dipole=1.7,
                                rot_relax=2.0),
        note='120186')

species(name='CH2CO',
        atoms='C:2 H:2 O:1',
        thermo=(NASA([300.00, 1000.00],
                     [ 2.97497100E+00,  1.21187100E-02, -2.34504600E-06,
                      -6.46668500E-09,  3.90564900E-12, -7.63263700E+03,
                       8.67355300E+00]),
                NASA([1000.00, 5000.00],
                     [ 6.03881700E+00,  5.80484000E-03, -1.92095400E-06,
                       2.79448500E-10, -1.45886800E-14, -8.58340200E+03,
                      -7.65758100E+00])),
        transport=gas_transport(geom='nonlinear',
                                diam=3.97,
                                well_depth=436.0,
                                rot_relax=2.0),
        note='121686')

species(name='HCCO',
        atoms='C:2 H:1 O:1',
        thermo=(NASA([300.00, 1000.00],
                     [ 5.04796500E+00,  4.45347800E-03,  2.26828300E-07,
                      -1.48209500E-09,  2.25074200E-13,  1.96589200E+04,
                       4.81843900E-01]),
                NASA([1000.00, 4000.00],
                     [ 6.75807300E+00,  2.00040000E-03, -2.02760700E-07,
                      -1.04113200E-10,  1.96516500E-14,  1.90151300E+04,
                      -9.07126200E+00])),
        transport=gas_transport(geom='nonlinear',
                                diam=2.5,
                                well_depth=150.0,
                                rot_relax=1.0),
        note='32387')

species(name='C2H5OH',
        atoms='C:2 H:6 O:1',
        thermo=(NASA([300.00, 1391.00],
                     [ 4.23149045E-01,  2.92858167E-02, -1.73845099E-05,
                       5.33639892E-09, -6.74917252E-13, -2.95683054E+04,
                       2.33538763E+01]),
                NASA([1391.00, 5000.00],
                     [ 7.95264841E+00,  1.31574144E-02, -4.43693359E-06,
                       6.82201160E-10, -3.93096335E-14, -3.23602958E+04,
                      -1.76537972E+01])),
        transport=gas_transport(geom='nonlinear',
                                diam=4.41,
                                well_depth=470.6,
                                rot_relax=1.5),
        note='3/12/95therm')

species(name='PC2H4OH',
        atoms='C:2 H:5 O:1',
        thermo=(NASA([300.00, 1391.00],
                     [ 1.17714711E+00,  2.48115685E-02, -1.50299503E-05,
                       4.79006785E-09, -6.40994211E-13, -4.95369043E+03,
                       2.20081586E+01]),
                NASA([1391.00, 5000.00],
                     [ 7.52241939E+00,  1.10492715E-02, -3.72576465E-06,
                       5.72827397E-10, -3.30061759E-14, -7.29333590E+03,
                      -1.24958732E+01])),
        transport=gas_transport(geom='nonlinear',
                                diam=4.41,
                                well_depth=470.6,
                                rot_relax=1.5),
        note='3/12/95therm')

species(name='SC2H4OH',
        atoms='C:2 H:5 O:1',
        thermo=(NASA([300.00, 1553.00],
                     [ 1.83974631E+00,  1.87789371E-02, -4.60544253E-06,
                      -2.13116990E-09,  9.43772653E-13, -6.29595195E+03,
                       2.01446141E+01]),
                NASA([1553.00, 5000.00],
                     [ 7.26631179E+00,  1.09588926E-02, -3.63662803E-06,
                       5.53659830E-10, -3.17012322E-14, -8.64310684E+03,
                      -1.06794104E+01])),
        transport=gas_transport(geom='nonlinear',
                                diam=4.41,
                                well_depth=470.6,
                                rot_relax=1.5),
        note='3/12/95therm')

species(name='CH3CO',
        atoms='C:2 H:3 O:1',
        thermo=(NASA([300.00, 1000.00],
                     [ 3.12527800E+00,  9.77822000E-03,  4.52144800E-06,
                      -9.00946200E-09,  3.19371800E-12, -4.10850800E+03,
                       1.12288500E+01]),
                NASA([1000.00, 5000.00],
                     [ 5.61227900E+00,  8.44988600E-03, -2.85414700E-06,
                       4.23837600E-10, -2.26840400E-14, -5.18786300E+03,
                      -3.27494900E+00])),
        transport=gas_transport(geom='nonlinear',
                                diam=3.97,
                                well_depth=436.0,
                                dipole=2.5,
                                rot_relax=2.0),
        note='120186')

species(name='CH2CHO',
        atoms='C:2 H:3 O:1',
        thermo=(NASA([300.00, 1000.00],
                     [ 3.40906200E+00,  1.07385700E-02,  1.89149200E-06,
                      -7.15858300E-09,  2.86738500E-12,  1.52147700E+03,
                       9.55829000E+00]),
                NASA([1000.00, 5000.00],
                     [ 5.97567000E+00,  8.13059100E-03, -2.74362400E-06,
                       4.07030400E-10, -2.17601700E-14,  4.90321800E+02,
                      -5.04525100E+00])),
        transport=gas_transport(geom='nonlinear',
                                diam=3.97,
                                well_depth=436.0,
                                rot_relax=2.0),
        note='110393')

species(name='CH3CHO',
        atoms='C:2 H:4 O:1',
        thermo=(NASA([300.00, 1000.00],
                     [ 2.50569500E+00,  1.33699100E-02,  4.67195300E-06,
                      -1.12814000E-08,  4.26356600E-12, -2.12458900E+04,
                       1.33508900E+01]),
                NASA([1000.00, 5000.00],
                     [ 5.86865000E+00,  1.07942400E-02, -3.64553000E-06,
                       5.41291200E-10, -2.89684400E-14, -2.26456900E+04,
                      -6.01294600E+00])),
        transport=gas_transport(geom='nonlinear',
                                diam=3.97,
                                well_depth=436.0,
                                dipole=2.5,
                                rot_relax=2.0),
        note='120186')

species(name='CH3COCH3',
        atoms='C:3 H:6 O:1',
        thermo=(NASA([300.00, 1374.00],
                     [ 1.30767163E+00,  2.92021742E-02, -1.19045617E-05,
                       6.52150087E-10,  4.67751203E-13, -2.75328269E+04,
                       1.96395025E+01]),
                NASA([1374.00, 5000.00],
                     [ 9.91421984E+00,  1.46030709E-02, -5.06085765E-06,
                       7.92682855E-10, -4.62739645E-14, -3.11167423E+04,
                      -2.86113215E+01])),
        transport=gas_transport(geom='nonlinear',
                                diam=4.86,
                                well_depth=435.5,
                                dipole=2.9,
                                rot_relax=1.0),
        note='5/4/92therm')

species(name='CH3COCH2',
        atoms='C:3 H:5 O:1',
        thermo=(NASA([300.00, 1391.00],
                     [ 1.80339187E+00,  3.01407085E-02, -1.93505552E-05,
                       6.38199034E-09, -8.66103180E-13, -5.37233261E+03,
                       1.78046408E+01]),
                NASA([1391.00, 5000.00],
                     [ 1.02303975E+01,  1.16494161E-02, -4.01005537E-06,
                       6.25205246E-10, -3.63784362E-14, -8.44380462E+03,
                      -2.79197220E+01])),
        transport=gas_transport(geom='nonlinear',
                                diam=4.86,
                                well_depth=435.5,
                                dipole=2.9,
                                rot_relax=1.0),
        note='5/4/92therm')

species(name='C2H5CHO',
        atoms='C:3 H:6 O:1',
        thermo=(NASA([300.00, 1378.00],
                     [ 2.16308444E+00,  2.95501264E-02, -1.52446252E-05,
                       3.49503947E-09, -2.38896627E-13, -2.42260137E+04,
                       1.61153348E+01]),
                NASA([1378.00, 5000.00],
                     [ 1.02427695E+01,  1.39641989E-02, -4.76248001E-06,
                       7.38105706E-10, -4.27759503E-14, -2.74143135E+04,
                      -2.85346843E+01])),
        transport=gas_transport(geom='nonlinear',
                                diam=4.662,
                                well_depth=435.2,
                                dipole=2.7,
                                rot_relax=1.0),
        note='6/26/95therm')

species(name='C2H5CO',
        atoms='C:3 H:5 O:1',
        thermo=(NASA([300.00, 1373.00],
                     [ 2.93313946E+00,  2.47427911E-02, -1.21222003E-05,
                       2.34701048E-09, -5.26843338E-14, -5.69663063E+03,
                       1.35958355E+01]),
                NASA([1373.00, 5000.00],
                     [ 9.87881997E+00,  1.17515676E-02, -4.00614923E-06,