#---------------------------------------------------------------------------
#  CTI File converted from Solution Object
#---------------------------------------------------------------------------

units(length = "cm", time = "s", quantity = "mol", act_energy = "cal/mol")

ideal_gas(name = "DMEsk43", 
     elements = "H O N C", 
     species =""" H H2 O O2 OH H2O N2 CO HCO CO2 CH3 CH4 HO2 H2O2 
                 CH2O CH3O C2H6 C2H4 C2H5 CH2 CH C2H2 C2H3 CH3OH CH2OH CH3CHO CH3O2 
                 CH3O2H HCO2 CH2(S) CH3OCH3 CH3OCH2 CH3OCH2O2 CH2OCH2O2H 
                 CH3OCH2O O2CH2OCH2O2H HO2CH2OCHO OCH2OCHO HOCH2OCO 
                 HOCH2O HCO2H CH3OCHO CH3OCO """, 
     reactions = "all", 
     initial_state = state(temperature = 3109.3490078070217, pressure= 6301151.746076432)   )       

#---------------------------------------------------------------------------
#  Species data
#---------------------------------------------------------------------------

species(name = "H",
    atoms = "H:1", 
    thermo = (
       NASA(   [300.0, 1000.0], [2.500000000e+00, 0.000000000e+00,
                0.000000000e+00, 0.000000000e+00,
                0.000000000e+00, 2.547163000e+04,
                -4.601176000e-01]  ),
       NASA(   [1000.0, 5000.0], [2.500000000e+00, 0.000000000e+00,
                0.000000000e+00, 0.000000000e+00,
                0.000000000e+00, 2.547163000e+04,
                -4.601176000e-01]  )
               ),
    transport = gas_transport(
                   geom = "atom",
                   diam = 2.05, 
                   well_depth = 145.0, 
                   polar = 0.0, 
                   rot_relax = 0.0) 
        )

species(name = "H2",
    atoms = "H:2", 
    thermo = (
       NASA(   [300.0, 1000.0], [3.298124000e+00, 8.249442000e-04,
                -8.143015000e-07,
                -9.475434000e-11, 4.134872000e-13,
                -1.012521000e+03,
                -3.294094000e+00]  ),
       NASA(   [1000.0, 5000.0], [2.991423000e+00, 7.000644000e-04,
                -5.633829000e-08,
                -9.231578000e-12, 1.582752000e-15,
                -8.350340000e+02,
                -1.355110000e+00]  )
               ),
    transport = gas_transport(
                   geom = "linear",
                   diam = 2.9200000000000004, 
                   well_depth = 38.0, 
                   polar = 0.7900000000000001, 
                   rot_relax = 280.0) 
        )

species(name = "O",
    atoms = "O:1", 
    thermo = (
       NASA(   [300.0, 1000.0], [2.946429000e+00, -1.638166000e-03,
                2.421032000e-06, -1.602843000e-09,
                3.890696000e-13, 2.914764000e+04,
                2.963995000e+00]  ),
       NASA(   [1000.0, 5000.0], [2.542060000e+00, -2.755062000e-05,
                -3.102803000e-09, 4.551067000e-12,
                -4.368052000e-16, 2.923080000e+04,
                4.920308000e+00]  )
               ),
    transport = gas_transport(
                   geom = "atom",
                   diam = 2.7500000000000004, 
                   well_depth = 80.0, 
                   polar = 0.0, 
                   rot_relax = 0.0) 
        )

species(name = "O2",
    atoms = "O:2", 
    thermo = (
       NASA(   [300.0, 1000.0], [3.212936000e+00, 1.127486000e-03,
                -5.756150000e-07, 1.313877000e-09,
                -8.768554000e-13,
                -1.005249000e+03, 6.034738000e+00]  ),
       NASA(   [1000.0, 5000.0], [3.697578000e+00, 6.135197000e-04,
                -1.258842000e-07, 1.775281000e-11,
                -1.136435000e-15,
                -1.233930000e+03, 3.189166000e+00]  )
               ),
    transport = gas_transport(
                   geom = "linear",
                   diam = 3.458, 
                   well_depth = 107.4, 
                   polar = 1.6, 
                   rot_relax = 3.8) 
        )

species(name = "OH",
    atoms = "H:1  O:1", 
    thermo = (
       NASA(   [300.0, 1357.0], [3.435862190e+00, 2.022358040e-04,
                -1.135464120e-07, 2.424451490e-10,
                -7.436510310e-14, 3.743212520e+03,
                2.450141270e+00]  ),
       NASA(   [1357.0, 5000.0], [2.625997540e+00, 1.319924060e-03,
                -3.597246700e-07, 4.256308000e-11,
                -1.820480160e-15, 4.120853740e+03,
                7.106673070e+00]  )
               ),
    transport = gas_transport(
                   geom = "linear",
                   diam = 2.7500000000000004, 
                   well_depth = 80.0, 
                   polar = 0.0, 
                   rot_relax = 0.0) 
        )

species(name = "H2O",
    atoms = "H:2  O:1", 
    thermo = (
       NASA(   [300.0, 1000.0], [3.386842000e+00, 3.474982000e-03,
                -6.354696000e-06, 6.968581000e-09,
                -2.506588000e-12,
                -3.020811000e+04, 2.590233000e+00]  ),
       NASA(   [1000.0, 5000.0], [2.672146000e+00, 3.056293000e-03,
                -8.730260000e-07, 1.200996000e-10,
                -6.391618000e-15,
                -2.989921000e+04, 6.862817000e+00]  )
               ),
    transport = gas_transport(
                   geom = "nonlinear",
                   diam = 2.6050000000000004, 
                   well_depth = 572.4, 
                   polar = 0.0, 
                   rot_relax = 4.0, 
                   dipole= 1.8440005262719967) 
        )

species(name = "N2",
    atoms = "N:2", 
    thermo = (
       NASA(   [300.0, 1000.0], [3.298677000e+00, 1.408240000e-03,
                -3.963222000e-06, 5.641515000e-09,
                -2.444855000e-12,
                -1.020900000e+03, 3.950372000e+00]  ),
       NASA(   [1000.0, 5000.0], [2.926640000e+00, 1.487977000e-03,
                -5.684761000e-07, 1.009704000e-10,
                -6.753351000e-15,
                -9.227977000e+02, 5.980528000e+00]  )
               ),
    transport = gas_transport(
                   geom = "linear",
                   diam = 3.621, 
                   well_depth = 97.53, 
                   polar = 1.76, 
                   rot_relax = 4.0) 
        )

species(name = "CO",
    atoms = "C:1  O:1", 
    thermo = (
       NASA(   [300.0, 1000.0], [3.262452000e+00, 1.511941000e-03,
                -3.881755000e-06, 5.581944000e-09,
                -2.474951000e-12,
                -1.431054000e+04, 4.848897000e+00]  ),
       NASA(   [1000.0, 5000.0], [3.025078000e+00, 1.442689000e-03,
                -5.630828000e-07, 1.018581000e-10,
                -6.910952000e-15,
                -1.426835000e+04, 6.108218000e+00]  )
               ),
    transport = gas_transport(
                   geom = "linear",
                   diam = 3.65, 
                   well_depth = 98.1, 
                   polar = 1.9500000000000002, 
                   rot_relax = 1.8) 
        )

species(name = "HCO",
    atoms = "C:1  H:1  O:1", 
    thermo = (
       NASA(   [300.0, 1000.0], [2.898330000e+00, 6.199147000e-03,
                -9.623084000e-06, 1.089825000e-08,
                -4.574885000e-12, 4.159922000e+03,
                8.983614000e+00]  ),
       NASA(   [1000.0, 5000.0], [3.557271000e+00, 3.345573000e-03,
                -1.335006000e-06, 2.470573000e-10,
                -1.713851000e-14, 3.916324000e+03,
                5.552299000e+00]  )
               ),
    transport = gas_transport(
                   geom = "nonlinear",
                   diam = 3.59, 
                   well_depth = 498.0, 
                   polar = 0.0, 
                   rot_relax = 0.0) 
        )

species(name = "CO2",
    atoms = "C:1  O:2", 
    thermo = (
       NASA(   [300.0, 1000.0], [2.275725000e+00, 9.922072000e-03,
                -1.040911000e-05, 6.866687000e-09,
                -2.117280000e-12,
                -4.837314000e+04, 1.018849000e+01]  ),
       NASA(   [1000.0, 5000.0], [4.453623000e+00, 3.140169000e-03,
                -1.278411000e-06, 2.393997000e-10,
                -1.669033000e-14,
                -4.896696000e+04,
                -9.553959000e-01]  )
               ),
    transport = gas_transport(
                   geom = "linear",
                   diam = 3.763, 
                   well_depth = 244.0, 
                   polar = 2.6500000000000004, 
                   rot_relax = 2.1) 
        )

species(name = "CH3",
    atoms = "C:1  H:3", 
    thermo = (
       NASA(   [300.0, 1000.0], [2.430443000e+00, 1.112410000e-02,
                -1.680220000e-05, 1.621829000e-08,
                -5.864953000e-12, 1.642378000e+04,
                6.789794000e+00]  ),
       NASA(   [1000.0, 5000.0], [2.844052000e+00, 6.137974000e-03,
                -2.230345000e-06, 3.785161000e-10,
                -2.452159000e-14, 1.643781000e+04,
                5.452697000e+00]  )
               ),
    transport = gas_transport(
                   geom = "linear",
                   diam = 3.8, 
                   well_depth = 144.0, 
                   polar = 0.0, 
                   rot_relax = 0.0) 
        )

species(name = "CH4",
    atoms = "C:1  H:4", 
    thermo = (
       NASA(   [300.0, 1000.0], [7.787415000e-01, 1.747668000e-02,
                -2.783409000e-05, 3.049708000e-08,
                -1.223931000e-11,
                -9.825229000e+03, 1.372219000e+01]  ),
       NASA(   [1000.0, 5000.0], [1.683479000e+00, 1.023724000e-02,
                -3.875129000e-06, 6.785585000e-10,
                -4.503423000e-14,
                -1.008079000e+04, 9.623395000e+00]  )
               ),
    transport = gas_transport(
                   geom = "nonlinear",
                   diam = 3.7460000000000004, 
                   well_depth = 141.4, 
                   polar = 2.6, 
                   rot_relax = 13.0) 
        )

species(name = "HO2",
    atoms = "H:1  O:2", 
    thermo = (
       NASA(   [300.0, 1390.0], [3.183106560e+00, 3.667679500e-03,
                -9.323851220e-07,
                -3.258529190e-10, 1.511399120e-13,
                8.091810130e+02, 8.393710990e+00]  ),
       NASA(   [1390.0, 5000.0], [4.105474230e+00, 2.384528350e-03,
                -8.063479890e-07, 1.241917230e-10,
                -7.164001080e-15, 3.981276890e+02,
                3.125158360e+00]  )
               ),
    transport = gas_transport(
                   geom = "nonlinear",
                   diam = 3.458, 
                   well_depth = 107.4, 
                   polar = 0.0, 
                   rot_relax = 1.0) 
        )

species(name = "H2O2",
    atoms = "H:2  O:2", 
    thermo = (
       NASA(   [300.0, 1000.0], [3.388754000e+00, 6.569226000e-03,
                -1.485013000e-07,
                -4.625806000e-09, 2.471515000e-12,
                -1.766315000e+04, 6.785363000e+00]  ),
       NASA(   [1000.0, 5000.0], [4.573167000e+00, 4.336136000e-03,
                -1.474689000e-06, 2.348904000e-10,
                -1.431654000e-14,
                -1.800696000e+04, 5.011370000e-01]  )
               ),
    transport = gas_transport(
                   geom = "nonlinear",
                   diam = 3.458, 
                   well_depth = 107.4, 
                   polar = 0.0, 
                   rot_relax = 3.8) 
        )

species(name = "CH2O",
    atoms = "C:1  H:2  O:1", 
    thermo = (
       NASA(   [300.0, 1000.0], [1.652731000e+00, 1.263144000e-02,
                -1.888168000e-05, 2.050031000e-08,
                -8.413237000e-12,
                -1.486540000e+04, 1.378482000e+01]  ),
       NASA(   [1000.0, 5000.0], [2.995606000e+00, 6.681321000e-03,
                -2.628955000e-06, 4.737153000e-10,
                -3.212517000e-14,
                -1.532037000e+04, 6.912572000e+00]  )
               ),
    transport = gas_transport(
                   geom = "nonlinear",
                   diam = 3.59, 
                   well_depth = 498.0, 
                   polar = 0.0, 
                   rot_relax = 2.0) 
        )

species(name = "CH3O",
    atoms = "C:1  H:3  O:1", 
    thermo = (
       NASA(   [300.0, 1000.0], [2.106204000e+00, 7.216595000e-03,
                5.338472000e-06, -7.377636000e-09,
                2.075611000e-12, 9.786011000e+02,
                1.315218000e+01]  ),
       NASA(   [1000.0, 3000.0], [3.770800000e+00, 7.871497000e-03,
                -2.656384000e-06, 3.944431000e-10,
                -2.112616000e-14, 1.278325000e+02,
                2.929575000e+00]  )
               ),
    transport = gas_transport(
                   geom = "nonlinear",
                   diam = 3.6900000000000004, 
                   well_depth = 417.0, 
                   polar = 0.0, 
                   rot_relax = 2.0, 
                   dipole= 1.7000004851748343) 
        )

species(name = "C2H6",
    atoms = "C:2  H:6", 
    thermo = (
       NASA(   [300.0, 1000.0], [1.462539000e+00, 1.549467000e-02,
                5.780507000e-06, -1.257832000e-08,
                4.586267000e-12, -1.123918000e+04,
                1.443229000e+01]  ),
       NASA(   [1000.0, 4000.0], [4.825938000e+00, 1.384043000e-02,
                -4.557259000e-06, 6.724967000e-10,
                -3.598161000e-14,
                -1.271779000e+04,
                -5.239507000e+00]  )
               ),
    transport = gas_transport(
                   geom = "nonlinear",
                   diam = 4.35, 
                   well_depth = 247.49999999999997, 
                   polar = 0.0, 
                   rot_relax = 1.5) 
        )

species(name = "C2H4",
    atoms = "C:2  H:4", 
    thermo = (
       NASA(   [300.0, 1000.0], [-8.614880000e-01, 2.796163000e-02,
                -3.388677000e-05, 2.785152000e-08,
                -9.737879000e-12, 5.573046000e+03,
                2.421149000e+01]  ),
       NASA(   [1000.0, 5000.0], [3.528419000e+00, 1.148518000e-02,
                -4.418385000e-06, 7.844601000e-10,
                -5.266848000e-14, 4.428289000e+03,
                2.230389000e+00]  )
               ),
    transport = gas_transport(
                   geom = "nonlinear",
                   diam = 3.496, 
                   well_depth = 238.4, 
                   polar = 0.0, 
                   rot_relax = 1.5) 
        )

species(name = "C2H5",
    atoms = "C:2  H:5", 
    thermo = (
       NASA(   [300.0, 1000.0], [2.690702000e+00, 8.719133000e-03,
                4.419839000e-06, 9.338703000e-10,
                -3.927773000e-12, 1.287040000e+04,
                1.213820000e+01]  ),
       NASA(   [1000.0, 5000.0], [7.190480000e+00, 6.484077000e-03,
                -6.428065000e-07,
                -2.347879000e-10, 3.880877000e-14,
                1.067455000e+04, -1.478089000e+01]  )
               ),
    transport = gas_transport(
                   geom = "nonlinear",
                   diam = 4.35, 
                   well_depth = 247.49999999999997, 
                   polar = 0.0, 
                   rot_relax = 1.5) 
        )

species(name = "CH2",
    atoms = "C:1  H:2", 
    thermo = (
       NASA(   [250.0, 1000.0], [3.762237000e+00, 1.159819000e-03,
                2.489585000e-07, 8.800836000e-10,
                -7.332435000e-13, 4.536791000e+04,
                1.712578000e+00]  ),
       NASA(   [1000.0, 4000.0], [3.636408000e+00, 1.933057000e-03,
                -1.687016000e-07,
                -1.009899000e-10, 1.808256000e-14,
                4.534134000e+04, 2.156561000e+00]  )
               ),
    transport = gas_transport(
                   geom = "linear",
                   diam = 3.8, 
                   well_depth = 144.0, 
                   polar = 0.0, 
                   rot_relax = 0.0) 
        )

species(name = "CH",
    atoms = "C:1  H:1", 
    thermo = (
       NASA(   [300.0, 1000.0], [3.200202000e+00, 2.072876000e-03,
                -5.134431000e-06, 5.733890000e-09,
                -1.955533000e-12, 7.045259000e+04,
                3.331588000e+00]  ),
       NASA(   [1000.0, 5000.0], [2.196223000e+00, 2.340381000e-03,
                -7.058201000e-07, 9.007582000e-11,
                -3.855040000e-15, 7.086723000e+04,
                9.178373000e+00]  )
               ),
    transport = gas_transport(
                   geom = "linear",
                   diam = 2.7500000000000004, 
                   well_depth = 80.0, 
                   polar = 0.0, 
                   rot_relax = 0.0) 
        )

species(name = "C2H2",
    atoms = "C:2  H:2", 
    thermo = (
       NASA(   [300.0, 1000.0], [2.013562000e+00, 1.519045000e-02,
                -1.616319000e-05, 9.078992000e-09,
                -1.912746000e-12, 2.612444000e+04,
                8.805378000e+00]  ),
       NASA(   [1000.0, 5000.0], [4.436770000e+00, 5.376039000e-03,
                -1.912817000e-06, 3.286379000e-10,
                -2.156710000e-14, 2.566766000e+04,
                -2.800338000e+00]  )
               ),
    transport = gas_transport(
                   geom = "linear",
                   diam = 3.7210000000000005, 
                   well_depth = 265.3, 
                   polar = 0.0, 
                   rot_relax = 2.5) 
        )

species(name = "C2H3",
    atoms = "C:2  H:3", 
    thermo = (
       NASA(   [300.0, 1000.0], [2.459276000e+00, 7.371476000e-03,
                2.109873000e-06, -1.321642000e-09,
                -1.184784000e-12, 3.335225000e+04,
                1.155620000e+01]  ),
       NASA(   [1000.0, 5000.0], [5.933468000e+00, 4.017746000e-03,
                -3.966740000e-07,
                -1.441267000e-10, 2.378644000e-14,
                3.185435000e+04, -8.530313000e+00]  )
               ),
    transport = gas_transport(
                   geom = "nonlinear",
                   diam = 3.7210000000000005, 
                   well_depth = 265.3, 
                   polar = 0.0, 
                   rot_relax = 1.0) 
        )

species(name = "CH3OH",
    atoms = "C:1  H:4  O:1", 
    thermo = (
       NASA(   [300.0, 1000.0], [2.660115000e+00, 7.341508000e-03,
                7.170051000e-06, -8.793194000e-09,
                2.390570000e-12, -2.535348000e+04,
                1.123263000e+01]  ),
       NASA(   [1000.0, 5000.0], [4.029061000e+00, 9.376593000e-03,
                -3.050254000e-06, 4.358793000e-10,
                -2.224723000e-14,
                -2.615791000e+04, 2.378196000e+00]  )
               ),
    transport = gas_transport(
                   geom = "nonlinear",
                   diam = 3.6260000000000003, 
                   well_depth = 481.8, 
                   polar = 0.0, 
                   rot_relax = 1.0, 
                   dipole= 1.7000004851748343) 
        )

species(name = "CH2OH",
    atoms = "C:1  H:3  O:1", 
    thermo = (
       NASA(   [250.0, 1000.0], [2.862628000e+00, 1.001527000e-02,
                -5.285436000e-07,
                -5.138540000e-09, 2.246041000e-12,
                -3.349679000e+03, 1.039794000e+01]  ),
       NASA(   [1000.0, 4000.0], [6.327520000e+00, 3.608271000e-03,
                -3.201547000e-07,
                -1.938750000e-10, 3.509705000e-14,
                -4.474509000e+03,
                -8.329366000e+00]  )
               ),
    transport = gas_transport(
                   geom = "nonlinear",
                   diam = 3.6900000000000004, 
                   well_depth = 417.0, 
                   polar = 0.0, 
                   rot_relax = 2.0, 
                   dipole= 1.7000004851748343) 
        )

species(name = "CH3CHO",
    atoms = "C:2  H:4  O:1", 
    thermo = (
       NASA(   [300.0, 1000.0], [2.505695000e+00, 1.336991000e-02,
                4.671953000e-06, -1.128140000e-08,
                4.263566000e-12, -2.124589000e+04,
                1.335089000e+01]  ),
       NASA(   [1000.0, 5000.0], [5.868650000e+00, 1.079424000e-02,
                -3.645530000e-06, 5.412912000e-10,
                -2.896844000e-14,
                -2.264569000e+04,
                -6.012946000e+00]  )
               ),
    transport = gas_transport(
                   geom = "nonlinear",
                   diam = 3.97, 
                   well_depth = 436.0, 
                   polar = 0.0, 
                   rot_relax = 2.0, 
                   dipole= 2.5000007134924034) 
        )

species(name = "CH3O2",
    atoms = "C:1  H:3  O:2", 
    thermo = (
       NASA(   [300.0, 1385.0], [4.261469060e+00, 1.008735990e-02,
                -3.215061840e-06, 2.094092670e-10,
                4.183391030e-14, -6.843942590e+02,
                5.163303200e+00]  ),
       NASA(   [1385.0, 5000.0], [5.957878910e+00, 7.907286260e-03,
                -2.682462340e-06, 4.138913370e-10,
                -2.390073300e-14,
                -1.535748380e+03,
                -4.719638860e+00]  )
               ),
    transport = gas_transport(
                   geom = "nonlinear",
                   diam = 3.6260000000000003, 
                   well_depth = 481.8, 
                   polar = 0.0, 
                   rot_relax = 1.0, 
                   dipole= 1.7000004851748343) 
        )

species(name = "CH3O2H",
    atoms = "C:1  H:4  O:2", 
    thermo = (
       NASA(   [300.0, 1390.0], [3.234428170e+00, 1.901297670e-02,
                -1.133862870e-05, 3.403066530e-09,
                -4.118302220e-13,
                -1.771979260e+04, 9.256239490e+00]  ),
       NASA(   [1390.0, 5000.0], [8.431170910e+00, 8.068179090e-03,
                -2.770949210e-06, 4.313322430e-10,
                -2.506921460e-14,
                -1.966787710e+04,
                -1.911706290e+01]  )
               ),
    transport = gas_transport(
                   geom = "nonlinear",
                   diam = 3.6260000000000003, 
                   well_depth = 481.8, 
                   polar = 0.0, 
                   rot_relax = 1.0, 
                   dipole= 1.7000004851748343) 
        )

species(name = "HCO2",
    atoms = "C:1  H:1  O:2", 
    thermo = (
       NASA(   [300.0, 1690.0], [1.352134520e+00, 1.500820040e-02,
                -1.098961410e-05, 3.736798400e-09,
                -4.810144980e-13,
                -2.022536470e+04, 1.743731470e+01]  ),
       NASA(   [1690.0, 5000.0], [6.126287820e+00, 3.756029320e-03,
                -1.420103520e-06, 2.364292000e-10,
                -1.441676510e-14,
                -2.176984660e+04,
                -8.015746940e+00]  )
               ),
    transport = gas_transport(
                   geom = "nonlinear",
                   diam = 3.6260000000000003, 
                   well_depth = 481.8, 
                   polar = 0.0, 
                   rot_relax = 1.0, 
                   dipole= 1.7000004851748343) 
        )

species(name = "CH2(S)",
    atoms = "C:1  H:2", 
    thermo = (
       NASA(   [300.0, 1000.0], [3.971265000e+00, -1.699089000e-04,
                1.025369000e-06, 2.492551000e-09,
                -1.981266000e-12, 4.989368000e+04,
                5.753207000e-02]  ),
       NASA(   [1000.0, 4000.0], [3.552889000e+00, 2.066788000e-03,
                -1.914116000e-07,
                -1.104673000e-10, 2.021350000e-14,
                4.984975000e+04, 1.686570000e+00]  )
               ),
    transport = gas_transport(
                   geom = "linear",
                   diam = 3.8, 
                   well_depth = 144.0, 
                   polar = 0.0, 
                   rot_relax = 0.0) 
        )

species(name = "CH3OCH3",
    atoms = "C:2  H:6  O:1", 
    thermo = (
       NASA(   [300.0, 1368.0], [1.507634500e+00, 2.399142280e-02,
                -8.689105000e-06,
                -9.668357620e-11, 4.893193610e-13,
                -2.328108940e+04, 1.673172970e+01]  ),
       NASA(   [1368.0, 5000.0], [8.277458360e+00, 1.321355390e-02,
                -4.532643620e-06, 7.053165070e-10,
                -4.099332830e-14,
                -2.619827000e+04,
                -2.151908940e+01]  )
               ),
    transport = gas_transport(
                   geom = "nonlinear",
                   diam = 4.037, 
                   well_depth = 395.0, 
                   polar = 0.0, 
                   rot_relax = 1.0, 
                   dipole= 1.3000003710160497) 
        )

species(name = "CH3OCH2",
    atoms = "C:2  H:5  O:1", 
    thermo = (
       NASA(   [300.0, 1376.0], [2.913274150e+00, 2.033646590e-02,
                -9.597123420e-06, 2.074785250e-09,
                -1.713433620e-13,
                -1.188442400e+03, 1.160668170e+01]  ),
       NASA(   [1376.0, 5000.0], [8.171378420e+00, 1.100861810e-02,
                -3.823522770e-06, 5.996372020e-10,
                -3.503175130e-14,
                -3.419416050e+03,
                -1.786508560e+01]  )
               ),
    transport = gas_transport(
                   geom = "nonlinear",
                   diam = 4.037, 
                   well_depth = 395.0, 
                   polar = 0.0, 
                   rot_relax = 1.0, 
                   dipole= 1.3000003710160497) 
        )

species(name = "CH3OCH2O2",
    atoms = "C:2  H:5  O:3", 
    thermo = (
       NASA(   [300.0, 1389.0], [2.210296120e+00, 3.688774540e-02,
                -2.825615550e-05, 1.157305330e-08,
                -1.971304700e-12,
                -1.949409400e+04, 1.914636010e+01]  ),
       NASA(   [1389.0, 5000.0], [1.242497290e+01, 1.187059860e-02,
                -4.079065320e-06, 6.353108090e-10,
                -3.694278670e-14,
                -2.296792380e+04,
                -3.537401450e+01]  )
               ),
    transport = gas_transport(
                   geom = "nonlinear",
                   diam = 4.037, 
                   well_depth = 395.0, 
                   polar = 0.0, 
                   rot_relax = 1.0, 
                   dipole= 1.3000003710160497) 
        )

species(name = "CH2OCH2O2H",
    atoms = "C:2  H:5  O:3", 
    thermo = (
       NASA(   [300.0, 1393.0], [2.528955070e+00, 4.241282900e-02,
                -3.734063860e-05, 1.666393330e-08,
                -2.964433120e-12,
                -1.442933060e+04, 1.768992510e+01]  ),
       NASA(   [1393.0, 5000.0], [1.511917830e+01, 9.237188830e-03,
                -3.191275050e-06, 4.991146780e-10,
                -2.911624880e-14,
                -1.841148670e+04,
                -4.857066180e+01]  )
               ),
    transport = gas_transport(
                   geom = "nonlinear",
                   diam = 4.037, 
                   well_depth = 395.0, 
                   polar = 0.0, 
                   rot_relax = 1.0, 
                   dipole= 1.3000003710160497) 
        )

species(name = "CH3OCH2O",
    atoms = "C:2  H:5  O:2", 
    thermo = (
       NASA(   [300.0, 2012.0], [3.258893390e+00, 2.221463590e-02,
                -7.785563400e-06,
                -2.414841580e-10, 4.519144960e-13,
                -1.923772120e+04, 1.236800690e+01]  ),
       NASA(   [2012.0, 5000.0], [8.602618450e+00, 1.357721950e-02,
                -4.846616020e-06, 7.777661930e-10,
                -4.626336240e-14,
                -2.137624440e+04,
                -1.757750230e+01]  )
               ),
    transport = gas_transport(
                   geom = "nonlinear",
                   diam = 4.037, 
                   well_depth = 395.0, 
                   polar = 0.0, 
                   rot_relax = 1.0, 
                   dipole= 1.3000003710160497) 
        )

species(name = "O2CH2OCH2O2H",
    atoms = "C:2  H:5  O:5", 
    thermo = (
       NASA(   [300.0, 1402.0], [1.996405510e+00, 5.832262320e-02,
                -5.532597780e-05, 2.598105400e-08,
                -4.771410050e-12,
                -3.276287420e+04, 2.442150050e+01]  ),
       NASA(   [1402.0, 5000.0], [1.920380460e+01, 1.043948410e-02,
                -3.605829390e-06, 5.637928430e-10,
                -3.288072140e-14,
                -3.792070550e+04,
                -6.518472730e+01]  )
               ),
    transport = gas_transport(
                   geom = "nonlinear",
                   diam = 4.037, 
                   well_depth = 395.0, 
                   polar = 0.0, 
                   rot_relax = 1.0, 
                   dipole= 1.3000003710160497) 
        )

species(name = "HO2CH2OCHO",
    atoms = "C:2  H:4  O:4", 
    thermo = (
       NASA(   [300.0, 1387.0], [3.479357030e+00, 4.029523920e-02,
                -3.301092960e-05, 1.343601170e-08,
                -2.186015800e-12,
                -5.806299340e+04, 1.525213920e+01]  ),
       NASA(   [1387.0, 5000.0], [1.645842980e+01, 8.526835110e-03,
                -3.041135000e-06, 4.855969080e-10,
                -2.873163340e-14,
                -6.239596080e+04,
                -5.389241390e+01]  )
               ),
    transport = gas_transport(
                   geom = "nonlinear",
                   diam = 4.037, 
                   well_depth = 395.0, 
                   polar = 0.0, 
                   rot_relax = 1.0, 
                   dipole= 1.3000003710160497) 
        )

species(name = "OCH2OCHO",
    atoms = "C:2  H:3  O:3", 
    thermo = (
       NASA(   [300.0, 1475.0], [5.196908370e+00, 1.588397230e-02,
                3.535405470e-07, -6.104569230e-09,
                1.946618010e-12, -4.022427920e+04,
                6.116458280e+00]  ),
       NASA(   [1475.0, 5000.0], [1.202339160e+01, 8.112626590e-03,
                -2.913564620e-06, 4.673403840e-10,
                -2.773755250e-14,
                -4.336472310e+04,
                -3.336918090e+01]  )
               ),
    transport = gas_transport(
                   geom = "nonlinear",
                   diam = 4.037, 
                   well_depth = 395.0, 
                   polar = 0.0, 
                   rot_relax = 1.0, 
                   dipole= 1.3000003710160497) 
        )

species(name = "HOCH2OCO",
    atoms = "C:2  H:3  O:3", 
    thermo = (
       NASA(   [300.0, 1439.0], [5.757636080e+00, 2.295361960e-02,
                -1.291756550e-05, 2.070800090e-09,
                2.330882400e-13, -4.365360580e+04,
                1.188845770e+01]  ),
       NASA(   [1439.0, 5000.0], [1.467036860e+01, 5.358126030e-03,