#---------------------------------------------------------------------------
#  CTI File converted from Solution Object
#---------------------------------------------------------------------------

units(length = "cm", time = "s", quantity = "mol", act_energy = "cal/mol")

ideal_gas(name = "DMEsk53", 
     elements = "H O N C", 
     species =""" H H2 O O2 OH H2O N2 CO HCO CO2 CH3 CH4 HO2 H2O2 
                 CH2O CH3O C2H6 C2H4 C2H5 CH2 CH C2H C2H2 C2H3 CH3OH CH2OH CH2CO HCCO 
                 CH3CO CH2CHO CH3CHO CH3O2 CH3O2H C2H3O1-2 HCO3H HCO3 
                 HCO2 CH2(S) CH3OCH3 CH3OCH2 CH3OCH2O2 CH2OCH2O2H 
                 CH3OCH2O2H CH3OCH2O O2CH2OCH2O2H HO2CH2OCHO OCH2OCHO 
                 HOCH2OCO HOCH2O HCO2H CH3OCHO CH3OCO CH3OCH2OH """, 
     reactions = "all", 
     initial_state = state(temperature = 3325.518801617178, pressure= 5111349.956888572)   )       

#---------------------------------------------------------------------------
#  Species data
#---------------------------------------------------------------------------

species(name = "H",
    atoms = "H:1", 
    thermo = (
       NASA(   [300.0, 1000.0], [2.500000000e+00, 0.000000000e+00,
                0.000000000e+00, 0.000000000e+00,
                0.000000000e+00, 2.547163000e+04,
                -4.601176000e-01]  ),
       NASA(   [1000.0, 5000.0], [2.500000000e+00, 0.000000000e+00,
                0.000000000e+00, 0.000000000e+00,
                0.000000000e+00, 2.547163000e+04,
                -4.601176000e-01]  )
               ),
    transport = gas_transport(
                   geom = "atom",
                   diam = 2.05, 
                   well_depth = 145.0, 
                   polar = 0.0, 
                   rot_relax = 0.0) 
        )

species(name = "H2",
    atoms = "H:2", 
    thermo = (
       NASA(   [300.0, 1000.0], [3.298124000e+00, 8.249442000e-04,
                -8.143015000e-07,
                -9.475434000e-11, 4.134872000e-13,
                -1.012521000e+03,
                -3.294094000e+00]  ),
       NASA(   [1000.0, 5000.0], [2.991423000e+00, 7.000644000e-04,
                -5.633829000e-08,
                -9.231578000e-12, 1.582752000e-15,
                -8.350340000e+02,
                -1.355110000e+00]  )
               ),
    transport = gas_transport(
                   geom = "linear",
                   diam = 2.9200000000000004, 
                   well_depth = 38.0, 
                   polar = 0.7900000000000001, 
                   rot_relax = 280.0) 
        )

species(name = "O",
    atoms = "O:1", 
    thermo = (
       NASA(   [300.0, 1000.0], [2.946429000e+00, -1.638166000e-03,
                2.421032000e-06, -1.602843000e-09,
                3.890696000e-13, 2.914764000e+04,
                2.963995000e+00]  ),
       NASA(   [1000.0, 5000.0], [2.542060000e+00, -2.755062000e-05,
                -3.102803000e-09, 4.551067000e-12,
                -4.368052000e-16, 2.923080000e+04,
                4.920308000e+00]  )
               ),
    transport = gas_transport(
                   geom = "atom",
                   diam = 2.7500000000000004, 
                   well_depth = 80.0, 
                   polar = 0.0, 
                   rot_relax = 0.0) 
        )

species(name = "O2",
    atoms = "O:2", 
    thermo = (
       NASA(   [300.0, 1000.0], [3.212936000e+00, 1.127486000e-03,
                -5.756150000e-07, 1.313877000e-09,
                -8.768554000e-13,
                -1.005249000e+03, 6.034738000e+00]  ),
       NASA(   [1000.0, 5000.0], [3.697578000e+00, 6.135197000e-04,
                -1.258842000e-07, 1.775281000e-11,
                -1.136435000e-15,
                -1.233930000e+03, 3.189166000e+00]  )
               ),
    transport = gas_transport(
                   geom = "linear",
                   diam = 3.458, 
                   well_depth = 107.4, 
                   polar = 1.6, 
                   rot_relax = 3.8) 
        )

species(name = "OH",
    atoms = "H:1  O:1", 
    thermo = (
       NASA(   [300.0, 1357.0], [3.435862190e+00, 2.022358040e-04,
                -1.135464120e-07, 2.424451490e-10,
                -7.436510310e-14, 3.743212520e+03,
                2.450141270e+00]  ),
       NASA(   [1357.0, 5000.0], [2.625997540e+00, 1.319924060e-03,
                -3.597246700e-07, 4.256308000e-11,
                -1.820480160e-15, 4.120853740e+03,
                7.106673070e+00]  )
               ),
    transport = gas_transport(
                   geom = "linear",
                   diam = 2.7500000000000004, 
                   well_depth = 80.0, 
                   polar = 0.0, 
                   rot_relax = 0.0) 
        )

species(name = "H2O",
    atoms = "H:2  O:1", 
    thermo = (
       NASA(   [300.0, 1000.0], [3.386842000e+00, 3.474982000e-03,
                -6.354696000e-06, 6.968581000e-09,
                -2.506588000e-12,
                -3.020811000e+04, 2.590233000e+00]  ),
       NASA(   [1000.0, 5000.0], [2.672146000e+00, 3.056293000e-03,
                -8.730260000e-07, 1.200996000e-10,
                -6.391618000e-15,
                -2.989921000e+04, 6.862817000e+00]  )
               ),
    transport = gas_transport(
                   geom = "nonlinear",
                   diam = 2.6050000000000004, 
                   well_depth = 572.4, 
                   polar = 0.0, 
                   rot_relax = 4.0, 
                   dipole= 1.8440005262719967) 
        )

species(name = "N2",
    atoms = "N:2", 
    thermo = (
       NASA(   [300.0, 1000.0], [3.298677000e+00, 1.408240000e-03,
                -3.963222000e-06, 5.641515000e-09,
                -2.444855000e-12,
                -1.020900000e+03, 3.950372000e+00]  ),
       NASA(   [1000.0, 5000.0], [2.926640000e+00, 1.487977000e-03,
                -5.684761000e-07, 1.009704000e-10,
                -6.753351000e-15,
                -9.227977000e+02, 5.980528000e+00]  )
               ),
    transport = gas_transport(
                   geom = "linear",
                   diam = 3.621, 
                   well_depth = 97.53, 
                   polar = 1.76, 
                   rot_relax = 4.0) 
        )

species(name = "CO",
    atoms = "C:1  O:1", 
    thermo = (
       NASA(   [300.0, 1000.0], [3.262452000e+00, 1.511941000e-03,
                -3.881755000e-06, 5.581944000e-09,
                -2.474951000e-12,
                -1.431054000e+04, 4.848897000e+00]  ),
       NASA(   [1000.0, 5000.0], [3.025078000e+00, 1.442689000e-03,
                -5.630828000e-07, 1.018581000e-10,
                -6.910952000e-15,
                -1.426835000e+04, 6.108218000e+00]  )
               ),
    transport = gas_transport(
                   geom = "linear",
                   diam = 3.65, 
                   well_depth = 98.1, 
                   polar = 1.9500000000000002, 
                   rot_relax = 1.8) 
        )

species(name = "HCO",
    atoms = "C:1  H:1  O:1", 
    thermo = (
       NASA(   [300.0, 1000.0], [2.898330000e+00, 6.199147000e-03,
                -9.623084000e-06, 1.089825000e-08,
                -4.574885000e-12, 4.159922000e+03,
                8.983614000e+00]  ),
       NASA(   [1000.0, 5000.0], [3.557271000e+00, 3.345573000e-03,
                -1.335006000e-06, 2.470573000e-10,
                -1.713851000e-14, 3.916324000e+03,
                5.552299000e+00]  )
               ),
    transport = gas_transport(
                   geom = "nonlinear",
                   diam = 3.59, 
                   well_depth = 498.0, 
                   polar = 0.0, 
                   rot_relax = 0.0) 
        )

species(name = "CO2",
    atoms = "C:1  O:2", 
    thermo = (
       NASA(   [300.0, 1000.0], [2.275725000e+00, 9.922072000e-03,
                -1.040911000e-05, 6.866687000e-09,
                -2.117280000e-12,
                -4.837314000e+04, 1.018849000e+01]  ),
       NASA(   [1000.0, 5000.0], [4.453623000e+00, 3.140169000e-03,
                -1.278411000e-06, 2.393997000e-10,
                -1.669033000e-14,
                -4.896696000e+04,
                -9.553959000e-01]  )
               ),
    transport = gas_transport(
                   geom = "linear",
                   diam = 3.763, 
                   well_depth = 244.0, 
                   polar = 2.6500000000000004, 
                   rot_relax = 2.1) 
        )

species(name = "CH3",
    atoms = "C:1  H:3", 
    thermo = (
       NASA(   [300.0, 1000.0], [2.430443000e+00, 1.112410000e-02,
                -1.680220000e-05, 1.621829000e-08,
                -5.864953000e-12, 1.642378000e+04,
                6.789794000e+00]  ),
       NASA(   [1000.0, 5000.0], [2.844052000e+00, 6.137974000e-03,
                -2.230345000e-06, 3.785161000e-10,
                -2.452159000e-14, 1.643781000e+04,
                5.452697000e+00]  )
               ),
    transport = gas_transport(
                   geom = "linear",
                   diam = 3.8, 
                   well_depth = 144.0, 
                   polar = 0.0, 
                   rot_relax = 0.0) 
        )

species(name = "CH4",
    atoms = "C:1  H:4", 
    thermo = (
       NASA(   [300.0, 1000.0], [7.787415000e-01, 1.747668000e-02,
                -2.783409000e-05, 3.049708000e-08,
                -1.223931000e-11,
                -9.825229000e+03, 1.372219000e+01]  ),
       NASA(   [1000.0, 5000.0], [1.683479000e+00, 1.023724000e-02,
                -3.875129000e-06, 6.785585000e-10,
                -4.503423000e-14,
                -1.008079000e+04, 9.623395000e+00]  )
               ),
    transport = gas_transport(
                   geom = "nonlinear",
                   diam = 3.7460000000000004, 
                   well_depth = 141.4, 
                   polar = 2.6, 
                   rot_relax = 13.0) 
        )

species(name = "HO2",
    atoms = "H:1  O:2", 
    thermo = (
       NASA(   [300.0, 1390.0], [3.183106560e+00, 3.667679500e-03,
                -9.323851220e-07,
                -3.258529190e-10, 1.511399120e-13,
                8.091810130e+02, 8.393710990e+00]  ),
       NASA(   [1390.0, 5000.0], [4.105474230e+00, 2.384528350e-03,
                -8.063479890e-07, 1.241917230e-10,
                -7.164001080e-15, 3.981276890e+02,
                3.125158360e+00]  )
               ),
    transport = gas_transport(
                   geom = "nonlinear",
                   diam = 3.458, 
                   well_depth = 107.4, 
                   polar = 0.0, 
                   rot_relax = 1.0) 
        )

species(name = "H2O2",
    atoms = "H:2  O:2", 
    thermo = (
       NASA(   [300.0, 1000.0], [3.388754000e+00, 6.569226000e-03,
                -1.485013000e-07,
                -4.625806000e-09, 2.471515000e-12,
                -1.766315000e+04, 6.785363000e+00]  ),
       NASA(   [1000.0, 5000.0], [4.573167000e+00, 4.336136000e-03,
                -1.474689000e-06, 2.348904000e-10,
                -1.431654000e-14,
                -1.800696000e+04, 5.011370000e-01]  )
               ),
    transport = gas_transport(
                   geom = "nonlinear",
                   diam = 3.458, 
                   well_depth = 107.4, 
                   polar = 0.0, 
                   rot_relax = 3.8) 
        )

species(name = "CH2O",
    atoms = "C:1  H:2  O:1", 
    thermo = (
       NASA(   [300.0, 1000.0], [1.652731000e+00, 1.263144000e-02,
                -1.888168000e-05, 2.050031000e-08,
                -8.413237000e-12,
                -1.486540000e+04, 1.378482000e+01]  ),
       NASA(   [1000.0, 5000.0], [2.995606000e+00, 6.681321000e-03,
                -2.628955000e-06, 4.737153000e-10,
                -3.212517000e-14,
                -1.532037000e+04, 6.912572000e+00]  )
               ),
    transport = gas_transport(
                   geom = "nonlinear",
                   diam = 3.59, 
                   well_depth = 498.0, 
                   polar = 0.0, 
                   rot_relax = 2.0) 
        )

species(name = "CH3O",
    atoms = "C:1  H:3  O:1", 
    thermo = (
       NASA(   [300.0, 1000.0], [2.106204000e+00, 7.216595000e-03,
                5.338472000e-06, -7.377636000e-09,
                2.075611000e-12, 9.786011000e+02,
                1.315218000e+01]  ),
       NASA(   [1000.0, 3000.0], [3.770800000e+00, 7.871497000e-03,
                -2.656384000e-06, 3.944431000e-10,
                -2.112616000e-14, 1.278325000e+02,
                2.929575000e+00]  )
               ),
    transport = gas_transport(
                   geom = "nonlinear",
                   diam = 3.6900000000000004, 
                   well_depth = 417.0, 
                   polar = 0.0, 
                   rot_relax = 2.0, 
                   dipole= 1.7000004851748343) 
        )

species(name = "C2H6",
    atoms = "C:2  H:6", 
    thermo = (
       NASA(   [300.0, 1000.0], [1.462539000e+00, 1.549467000e-02,
                5.780507000e-06, -1.257832000e-08,
                4.586267000e-12, -1.123918000e+04,
                1.443229000e+01]  ),
       NASA(   [1000.0, 4000.0], [4.825938000e+00, 1.384043000e-02,
                -4.557259000e-06, 6.724967000e-10,
                -3.598161000e-14,
                -1.271779000e+04,
                -5.239507000e+00]  )
               ),
    transport = gas_transport(
                   geom = "nonlinear",
                   diam = 4.35, 
                   well_depth = 247.49999999999997, 
                   polar = 0.0, 
                   rot_relax = 1.5) 
        )

species(name = "C2H4",
    atoms = "C:2  H:4", 
    thermo = (
       NASA(   [300.0, 1000.0], [-8.614880000e-01, 2.796163000e-02,
                -3.388677000e-05, 2.785152000e-08,
                -9.737879000e-12, 5.573046000e+03,
                2.421149000e+01]  ),
       NASA(   [1000.0, 5000.0], [3.528419000e+00, 1.148518000e-02,
                -4.418385000e-06, 7.844601000e-10,
                -5.266848000e-14, 4.428289000e+03,
                2.230389000e+00]  )
               ),
    transport = gas_transport(
                   geom = "nonlinear",
                   diam = 3.496, 
                   well_depth = 238.4, 
                   polar = 0.0, 
                   rot_relax = 1.5) 
        )

species(name = "C2H5",
    atoms = "C:2  H:5", 
    thermo = (
       NASA(   [300.0, 1000.0], [2.690702000e+00, 8.719133000e-03,
                4.419839000e-06, 9.338703000e-10,
                -3.927773000e-12, 1.287040000e+04,
                1.213820000e+01]  ),
       NASA(   [1000.0, 5000.0], [7.190480000e+00, 6.484077000e-03,
                -6.428065000e-07,
                -2.347879000e-10, 3.880877000e-14,
                1.067455000e+04, -1.478089000e+01]  )
               ),
    transport = gas_transport(
                   geom = "nonlinear",
                   diam = 4.35, 
                   well_depth = 247.49999999999997, 
                   polar = 0.0, 
                   rot_relax = 1.5) 
        )

species(name = "CH2",
    atoms = "C:1  H:2", 
    thermo = (
       NASA(   [250.0, 1000.0], [3.762237000e+00, 1.159819000e-03,
                2.489585000e-07, 8.800836000e-10,
                -7.332435000e-13, 4.536791000e+04,
                1.712578000e+00]  ),
       NASA(   [1000.0, 4000.0], [3.636408000e+00, 1.933057000e-03,
                -1.687016000e-07,
                -1.009899000e-10, 1.808256000e-14,
                4.534134000e+04, 2.156561000e+00]  )
               ),
    transport = gas_transport(
                   geom = "linear",
                   diam = 3.8, 
                   well_depth = 144.0, 
                   polar = 0.0, 
                   rot_relax = 0.0) 
        )

species(name = "CH",
    atoms = "C:1  H:1", 
    thermo = (
       NASA(   [300.0, 1000.0], [3.200202000e+00, 2.072876000e-03,
                -5.134431000e-06, 5.733890000e-09,
                -1.955533000e-12, 7.045259000e+04,
                3.331588000e+00]  ),
       NASA(   [1000.0, 5000.0], [2.196223000e+00, 2.340381000e-03,
                -7.058201000e-07, 9.007582000e-11,
                -3.855040000e-15, 7.086723000e+04,
                9.178373000e+00]  )
               ),
    transport = gas_transport(
                   geom = "linear",
                   diam = 2.7500000000000004, 
                   well_depth = 80.0, 
                   polar = 0.0, 
                   rot_relax = 0.0) 
        )

species(name = "C2H",
    atoms = "C:2  H:1", 
    thermo = (
       NASA(   [300.0, 1000.0], [2.737704000e+00, 8.048446000e-03,
                -9.244310000e-06, 6.525259000e-09,
                -1.939580000e-12, 6.683813000e+04,
                7.300220000e+00]  ),
       NASA(   [1000.0, 4000.0], [3.986367000e+00, 3.143123000e-03,
                -1.267243000e-06, 2.924363000e-10,
                -2.716320000e-14, 6.655884000e+04,
                1.191063000e+00]  )
               ),
    transport = gas_transport(
                   geom = "linear",
                   diam = 3.7210000000000005, 
                   well_depth = 265.3, 
                   polar = 0.0, 
                   rot_relax = 2.5) 
        )

species(name = "C2H2",
    atoms = "C:2  H:2", 
    thermo = (
       NASA(   [300.0, 1000.0], [2.013562000e+00, 1.519045000e-02,
                -1.616319000e-05, 9.078992000e-09,
                -1.912746000e-12, 2.612444000e+04,
                8.805378000e+00]  ),
       NASA(   [1000.0, 5000.0], [4.436770000e+00, 5.376039000e-03,
                -1.912817000e-06, 3.286379000e-10,
                -2.156710000e-14, 2.566766000e+04,
                -2.800338000e+00]  )
               ),
    transport = gas_transport(
                   geom = "linear",
                   diam = 3.7210000000000005, 
                   well_depth = 265.3, 
                   polar = 0.0, 
                   rot_relax = 2.5) 
        )

species(name = "C2H3",
    atoms = "C:2  H:3", 
    thermo = (
       NASA(   [300.0, 1000.0], [2.459276000e+00, 7.371476000e-03,
                2.109873000e-06, -1.321642000e-09,
                -1.184784000e-12, 3.335225000e+04,
                1.155620000e+01]  ),
       NASA(   [1000.0, 5000.0], [5.933468000e+00, 4.017746000e-03,
                -3.966740000e-07,
                -1.441267000e-10, 2.378644000e-14,
                3.185435000e+04, -8.530313000e+00]  )
               ),
    transport = gas_transport(
                   geom = "nonlinear",
                   diam = 3.7210000000000005, 
                   well_depth = 265.3, 
                   polar = 0.0, 
                   rot_relax = 1.0) 
        )

species(name = "CH3OH",
    atoms = "C:1  H:4  O:1", 
    thermo = (
       NASA(   [300.0, 1000.0], [2.660115000e+00, 7.341508000e-03,
                7.170051000e-06, -8.793194000e-09,
                2.390570000e-12, -2.535348000e+04,
                1.123263000e+01]  ),
       NASA(   [1000.0, 5000.0], [4.029061000e+00, 9.376593000e-03,
                -3.050254000e-06, 4.358793000e-10,
                -2.224723000e-14,
                -2.615791000e+04, 2.378196000e+00]  )
               ),
    transport = gas_transport(
                   geom = "nonlinear",
                   diam = 3.6260000000000003, 
                   well_depth = 481.8, 
                   polar = 0.0, 
                   rot_relax = 1.0, 
                   dipole= 1.7000004851748343) 
        )

species(name = "CH2OH",
    atoms = "C:1  H:3  O:1", 
    thermo = (
       NASA(   [250.0, 1000.0], [2.862628000e+00, 1.001527000e-02,
                -5.285436000e-07,
                -5.138540000e-09, 2.246041000e-12,
                -3.349679000e+03, 1.039794000e+01]  ),
       NASA(   [1000.0, 4000.0], [6.327520000e+00, 3.608271000e-03,
                -3.201547000e-07,
                -1.938750000e-10, 3.509705000e-14,
                -4.474509000e+03,
                -8.329366000e+00]  )
               ),
    transport = gas_transport(
                   geom = "nonlinear",
                   diam = 3.6900000000000004, 
                   well_depth = 417.0, 
                   polar = 0.0, 
                   rot_relax = 2.0, 
                   dipole= 1.7000004851748343) 
        )

species(name = "CH2CO",
    atoms = "C:2  H:2  O:1", 
    thermo = (
       NASA(   [300.0, 1000.0], [2.974971000e+00, 1.211871000e-02,
                -2.345046000e-06,
                -6.466685000e-09, 3.905649000e-12,
                -7.632637000e+03, 8.673553000e+00]  ),
       NASA(   [1000.0, 5000.0], [6.038817000e+00, 5.804840000e-03,
                -1.920954000e-06, 2.794485000e-10,
                -1.458868000e-14,
                -8.583402000e+03,
                -7.657581000e+00]  )
               ),
    transport = gas_transport(
                   geom = "nonlinear",
                   diam = 3.97, 
                   well_depth = 436.0, 
                   polar = 0.0, 
                   rot_relax = 2.0) 
        )

species(name = "HCCO",
    atoms = "C:2  H:1  O:1", 
    thermo = (
       NASA(   [300.0, 1000.0], [5.047965000e+00, 4.453478000e-03,
                2.268283000e-07, -1.482095000e-09,
                2.250742000e-13, 1.965892000e+04,
                4.818439000e-01]  ),
       NASA(   [1000.0, 4000.0], [6.758073000e+00, 2.000400000e-03,
                -2.027607000e-07,
                -1.041132000e-10, 1.965165000e-14,
                1.901513000e+04, -9.071262000e+00]  )
               ),
    transport = gas_transport(
                   geom = "nonlinear",
                   diam = 2.5, 
                   well_depth = 150.0, 
                   polar = 0.0, 
                   rot_relax = 1.0) 
        )

species(name = "CH3CO",
    atoms = "C:2  H:3  O:1", 
    thermo = (
       NASA(   [300.0, 1000.0], [3.125278000e+00, 9.778220000e-03,
                4.521448000e-06, -9.009462000e-09,
                3.193718000e-12, -4.108508000e+03,
                1.122885000e+01]  ),
       NASA(   [1000.0, 5000.0], [5.612279000e+00, 8.449886000e-03,
                -2.854147000e-06, 4.238376000e-10,
                -2.268404000e-14,
                -5.187863000e+03,
                -3.274949000e+00]  )
               ),
    transport = gas_transport(
                   geom = "nonlinear",
                   diam = 3.97, 
                   well_depth = 436.0, 
                   polar = 0.0, 
                   rot_relax = 2.0, 
                   dipole= 2.5000007134924034) 
        )

species(name = "CH2CHO",
    atoms = "C:2  H:3  O:1", 
    thermo = (
       NASA(   [300.0, 1000.0], [3.409062000e+00, 1.073857000e-02,
                1.891492000e-06, -7.158583000e-09,
                2.867385000e-12, 1.521477000e+03,
                9.558290000e+00]  ),
       NASA(   [1000.0, 5000.0], [5.975670000e+00, 8.130591000e-03,
                -2.743624000e-06, 4.070304000e-10,
                -2.176017000e-14, 4.903218000e+02,
                -5.045251000e+00]  )
               ),
    transport = gas_transport(
                   geom = "nonlinear",
                   diam = 3.97, 
                   well_depth = 436.0, 
                   polar = 0.0, 
                   rot_relax = 2.0) 
        )

species(name = "CH3CHO",
    atoms = "C:2  H:4  O:1", 
    thermo = (
       NASA(   [300.0, 1000.0], [2.505695000e+00, 1.336991000e-02,
                4.671953000e-06, -1.128140000e-08,
                4.263566000e-12, -2.124589000e+04,
                1.335089000e+01]  ),
       NASA(   [1000.0, 5000.0], [5.868650000e+00, 1.079424000e-02,
                -3.645530000e-06, 5.412912000e-10,
                -2.896844000e-14,
                -2.264569000e+04,
                -6.012946000e+00]  )
               ),
    transport = gas_transport(
                   geom = "nonlinear",
                   diam = 3.97, 
                   well_depth = 436.0, 
                   polar = 0.0, 
                   rot_relax = 2.0, 
                   dipole= 2.5000007134924034) 
        )

species(name = "CH3O2",
    atoms = "C:1  H:3  O:2", 
    thermo = (
       NASA(   [300.0, 1385.0], [4.261469060e+00, 1.008735990e-02,
                -3.215061840e-06, 2.094092670e-10,
                4.183391030e-14, -6.843942590e+02,
                5.163303200e+00]  ),
       NASA(   [1385.0, 5000.0], [5.957878910e+00, 7.907286260e-03,
                -2.682462340e-06, 4.138913370e-10,
                -2.390073300e-14,
                -1.535748380e+03,
                -4.719638860e+00]  )
               ),
    transport = gas_transport(
                   geom = "nonlinear",
                   diam = 3.6260000000000003, 
                   well_depth = 481.8, 
                   polar = 0.0, 
                   rot_relax = 1.0, 
                   dipole= 1.7000004851748343) 
        )

species(name = "CH3O2H",
    atoms = "C:1  H:4  O:2", 
    thermo = (
       NASA(   [300.0, 1390.0], [3.234428170e+00, 1.901297670e-02,
                -1.133862870e-05, 3.403066530e-09,
                -4.118302220e-13,
                -1.771979260e+04, 9.256239490e+00]  ),
       NASA(   [1390.0, 5000.0], [8.431170910e+00, 8.068179090e-03,
                -2.770949210e-06, 4.313322430e-10,
                -2.506921460e-14,
                -1.966787710e+04,
                -1.911706290e+01]  )
               ),
    transport = gas_transport(
                   geom = "nonlinear",
                   diam = 3.6260000000000003, 
                   well_depth = 481.8, 
                   polar = 0.0, 
                   rot_relax = 1.0, 
                   dipole= 1.7000004851748343) 
        )

species(name = "C2H3O1-2",
    atoms = "C:2  H:3  O:1", 
    thermo = (
       NASA(   [300.0, 1491.0], [3.359998440e-01, 3.095708530e-02,
                -2.528386000e-05, 9.422375350e-09,
                -1.303992730e-12, 7.999509110e+03,
                2.508256600e+01]  ),
       NASA(   [1491.0, 5000.0], [1.143738270e+01, 4.237463860e-03,
                -1.548150520e-06, 2.511635590e-10,
                -1.502524250e-14, 4.354030660e+03,
                -3.404127120e+01]  )
               ),
    transport = gas_transport(
                   geom = "nonlinear",
                   diam = 4.349, 
                   well_depth = 387.3, 
                   polar = 0.0, 
                   rot_relax = 1.0, 
                   dipole= 1.9000005422542263) 
        )

species(name = "HCO3H",
    atoms = "C:1  H:2  O:3", 
    thermo = (
       NASA(   [300.0, 1378.0], [2.424647260e+00, 2.197063800e-02,
                -1.687055460e-05, 6.256121940e-09,
                -9.116458430e-13,
                -3.548280060e+04, 1.750277960e+01]  ),
       NASA(   [1378.0, 5000.0], [9.875038780e+00, 4.646637080e-03,
                -1.672305220e-06, 2.686244130e-10,
                -1.595952320e-14,
                -3.805024960e+04,
                -2.249391550e+01]  )
               ),
    transport = gas_transport(
                   geom = "nonlinear",
                   diam = 3.6260000000000003, 
                   well_depth = 481.8, 
                   polar = 0.0, 
                   rot_relax = 1.0, 
                   dipole= 1.7000004851748343) 
        )

species(name = "HCO3",
    atoms = "C:1  H:1  O:3", 
    thermo = (
       NASA(   [300.0, 1368.0], [3.960593090e+00, 1.060022790e-02,
                -5.257133510e-06, 1.017167260e-09,
                -2.874876020e-14,
                -1.735993830e+04, 1.178074830e+01]  ),
       NASA(   [1368.0, 5000.0], [7.240751390e+00, 4.633129510e-03,
                -1.636939950e-06, 2.597066930e-10,
                -1.529646990e-14,
                -1.870276180e+04,
                -6.495472120e+00]  )
               ),
    transport = gas_transport(
                   geom = "nonlinear",
                   diam = 3.6260000000000003, 
                   well_depth = 481.8, 
                   polar = 0.0, 
                   rot_relax = 1.0, 
                   dipole= 1.7000004851748343) 
        )

species(name = "HCO2",
    atoms = "C:1  H:1  O:2", 
    thermo = (
       NASA(   [300.0, 1690.0], [1.352134520e+00, 1.500820040e-02,
                -1.098961410e-05, 3.736798400e-09,
                -4.810144980e-13,
                -2.022536470e+04, 1.743731470e+01]  ),
       NASA(   [1690.0, 5000.0], [6.126287820e+00, 3.756029320e-03,
                -1.420103520e-06, 2.364292000e-10,
                -1.441676510e-14,
                -2.176984660e+04,
                -8.015746940e+00]  )
               ),
    transport = gas_transport(
                   geom = "nonlinear",
                   diam = 3.6260000000000003, 
                   well_depth = 481.8, 
                   polar = 0.0, 
                   rot_relax = 1.0, 
                   dipole= 1.7000004851748343) 
        )

species(name = "CH2(S)",
    atoms = "C:1  H:2", 
    thermo = (
       NASA(   [300.0, 1000.0], [3.971265000e+00, -1.699089000e-04,
                1.025369000e-06, 2.492551000e-09,
                -1.981266000e-12, 4.989368000e+04,
                5.753207000e-02]  ),
       NASA(   [1000.0, 4000.0], [3.552889000e+00, 2.066788000e-03,
                -1.914116000e-07,
                -1.104673000e-10, 2.021350000e-14,
                4.984975000e+04, 1.686570000e+00]  )
               ),
    transport = gas_transport(
                   geom = "linear",
                   diam = 3.8, 
                   well_depth = 144.0, 
                   polar = 0.0, 
                   rot_relax = 0.0) 
        )

species(name = "CH3OCH3",
    atoms = "C:2  H:6  O:1", 
    thermo = (
       NASA(   [300.0, 1368.0], [1.507634500e+00, 2.399142280e-02,
                -8.689105000e-06,
                -9.668357620e-11, 4.893193610e-13,
                -2.328108940e+04, 1.673172970e+01]  ),
       NASA(   [1368.0, 5000.0], [8.277458360e+00, 1.321355390e-02,
                -4.532643620e-06, 7.053165070e-10,
                -4.099332830e-14,
                -2.619827000e+04,
                -2.151908940e+01]  )
               ),