units(length='cm', time='s', quantity='mol', act_energy='cal/mol')

ideal_gas(name='gas',
          elements="C H O N",
          species="""H2        O2        CO        CO2       CH4       
                     C2H6      CH2O      C2H2      C2H4      C3H6      
                     CH3OH     CH3HCO    AC3H4     C4H4      C4H6      
                     C4H2      C3H8      BUTYNE    C2C4H8    ACROL     
                     PC3H4     C4H8      T2C4H8    C6H6      AC5H10    
                     T2C5H10   C2C5H10   C5H813    C         AC6H12    
                     CC7H14    AC7H14    BC7H14    AC8H16    C6H10     
                     AC9H18    AC10H20   NC10H22   PHC3H7    TOLUEN    
                     PHC2H5    STYREN    PHHCO     CPD       C6H5OH    
                     PHC2H     PHCH2OH   C14H14    NAPHT     CHD13     
                     C4H612    BUTYN2    HOC4H6    MHD       CYC6H12   
                     CYC5H8    CYC6H10   CYC9H18   CYC8H14   CYC7H12   
                     C7H1213   C7H1216   HEX1245   MC6H6     FULVENE   
                     C6H615    NC4H10    N2        H         O         
                     OH        HO2       H2O       H2O2      HCO       
                     CH3       SCH2      C2H5      CH2       CH        
                     CH3O      CH2OH     C3H3      CH2CO     C2H3      
                     C2H4O2H   CH2HCO    C2H       C2H4O     HCCO      
                     HCCOH     IC4H3     C2        CHOCHO    CHOCO     
                     C2H3O     CH3CO     C2H2OH    C2O       SC3H5     
                     C3H3O     IC3H7     NC3H7     AC3H5     TC3H5     
                     C3H6O     C3H5O     C3H4O2H   C3H4O     C2H3CO    
                     IC4H7     C3H4OH    C3H2      NC4H3     MEALL     
                     SC4H9     PC4H9     NC4H5     IC4H5     H2C4O     
                     C4H       OC4H6     C4H5O     C4H6O2H   AC5H11    
                     BC5H11    CC5H11    ETHCO     C5H913    C5H924    
                     AC6H13    BC6H13    C6H1113   AC7H15    BC7H15    
                     CC7H15    DC7H15    C7H1313   C7H1324   C7H1335   
                     AC8H17    BC8H17    CC8H17    DC8H17    C8H1513   
                     AC9H19    BC9H19    CC9H19    DC9H19    EC9H19    
                     AC9H17    AC10H21   BC10H21   CC10H21   DC10H21   
                     EC10H21   AC10H19   C8H1514   C8H1515   C8H1516   
                     C8H1517   C8H1518   C4H73     C5H915    C6H1116   
                     APHC3H6   BPHC3H6   CPHC3H6   PHCH2     BPHC2H4   
                     C6H5      APHC2H4   C6H5O     C5H5      C5H4OH    
                     C5H4O     PHCO      C5H5O13   C6H9      C6H9CY2   
                     C6H7C     C5H7      CYC5H7    CYC6H11   AC9H17C   
                     BC9H17C   CC9H17C   DC9H17C   EC9H17C   FC9H17C   
                     GC9H17C   C7H1314   C7H1331   C5H911    AC8H15C   
                     AC7H13C   CC6H13    C6H1112   C6H1115   PHCH2O    
                     BPHPROPY  NO        HCN       NH3       NO3       
                     N2O       NO2       HNO       HONO      H2NO      
                     N2H2      H2CN      NNH       NH2       NH        
                     N         CN        NCO       C2N2      HOCN      
                     HCNO      HNCO      CH3CN     CH2CN     NCN""",
          reactions='all',
          transport='Mix',
          initial_state=state(temperature=300.0, pressure=OneAtm))

#-------------------------------------------------------------------------------
# Species data
# Mechanism contains 225 species and 1800 reactions
#-------------------------------------------------------------------------------

species(name='H2',
        atoms='H:2',
        thermo=(NASA([300.00, 1000.00],
                     [ 3.29812000E+00,  8.24940000E-04, -8.14300000E-07,
                      -9.47500000E-11,  4.13490000E-13, -1.01250000E+03,
                      -3.29400000E+00]),
                NASA([1000.00, 5000.00],
                     [ 2.99142000E+00,  7.00060000E-04, -5.63400000E-08,
                      -9.23000000E-12,  1.58000000E-15, -8.35000000E+02,
                      -1.35500000E+00])),
        transport=gas_transport(geom='linear',
                                diam=2.92,
                                well_depth=38.0,
                                polar=0.79,
                                rot_relax=280.0))

species(name='O2',
        atoms='O:2',
        thermo=(NASA([300.00, 1000.00],
                     [ 3.21294000E+00,  1.12749000E-03, -5.75620000E-07,
                       1.31388000E-09, -8.76860000E-13, -1.00520000E+03,
                       6.03500000E+00]),
                NASA([1000.00, 5000.00],
                     [ 3.69758000E+00,  6.13520000E-04, -1.25880000E-07,
                       1.77500000E-11, -1.14000000E-15, -1.23390000E+03,
                       3.18900000E+00])),
        transport=gas_transport(geom='linear',
                                diam=3.458,
                                well_depth=107.4,
                                polar=1.6,
                                rot_relax=3.8))

species(name='CO',
        atoms='C:1 O:1',
        thermo=(NASA([300.00, 1000.00],
                     [ 3.26245000E+00,  1.51194000E-03, -3.88175000E-06,
                       5.58194000E-09, -2.47495000E-12, -1.43105000E+04,
                       4.84900000E+00]),
                NASA([1000.00, 5000.00],
                     [ 3.02508000E+00,  1.44269000E-03, -5.63080000E-07,
                       1.01860000E-10, -6.91000000E-15, -1.42683000E+04,
                       6.10800000E+00])),
        transport=gas_transport(geom='linear',
                                diam=3.65,
                                well_depth=98.1,
                                polar=1.95,
                                rot_relax=1.8))

species(name='CO2',
        atoms='C:1 O:2',
        thermo=(NASA([300.00, 1000.00],
                     [ 2.27572000E+00,  9.92207000E-03, -1.04091100E-05,
                       6.86669000E-09, -2.11728000E-12, -4.83731000E+04,
                       1.01880000E+01]),
                NASA([1000.00, 5000.00],
                     [ 4.45362000E+00,  3.14017000E-03, -1.27841000E-06,
                       2.39400000E-10, -1.66900000E-14, -4.89670000E+04,
                      -9.55000000E-01])),
        transport=gas_transport(geom='linear',
                                diam=3.763,
                                well_depth=244.0,
                                polar=2.65,
                                rot_relax=2.1))

species(name='CH4',
        atoms='H:4 C:1',
        thermo=(NASA([300.00, 1000.00],
                     [ 7.78740000E-01,  1.74766800E-02, -2.78340900E-05,
                       3.04970800E-08, -1.22393100E-11, -9.82520000E+03,
                       1.37220000E+01]),
                NASA([1000.00, 5000.00],
                     [ 1.68348000E+00,  1.02372400E-02, -3.87513000E-06,
                       6.78560000E-10, -4.50300000E-14, -1.00808000E+04,
                       9.62300000E+00])),
        transport=gas_transport(geom='nonlinear',
                                diam=3.746,
                                well_depth=141.4,
                                polar=2.6,
                                rot_relax=13.0))

species(name='C2H6',
        atoms='H:6 C:2',
        thermo=(NASA([300.00, 1000.00],
                     [ 1.46254000E+00,  1.54946700E-02,  5.78051000E-06,
                      -1.25783200E-08,  4.58627000E-12, -1.12392000E+04,
                       1.44320000E+01]),
                NASA([1000.00, 5000.00],
                     [ 4.82594000E+00,  1.38404300E-02, -4.55726000E-06,
                       6.72500000E-10, -3.59800000E-14, -1.27178000E+04,
                      -5.24000000E+00])),
        transport=gas_transport(geom='nonlinear',
                                diam=4.302,
                                well_depth=252.3,
                                rot_relax=1.5))

species(name='CH2O',
        atoms='H:2 C:1 O:1',
        thermo=(NASA([300.00, 1000.00],
                     [ 1.65273000E+00,  1.26314400E-02, -1.88816800E-05,
                       2.05003100E-08, -8.41324000E-12, -1.48654000E+04,
                       1.37850000E+01]),
                NASA([1000.00, 5000.00],
                     [ 2.99561000E+00,  6.68132000E-03, -2.62895000E-06,
                       4.73720000E-10, -3.21300000E-14, -1.53204000E+04,
                       6.91300000E+00])),
        transport=gas_transport(geom='nonlinear',
                                diam=3.59,
                                well_depth=498.0,
                                rot_relax=2.0))

species(name='C2H2',
        atoms='H:2 C:2',
        thermo=(NASA([300.00, 1000.00],
                     [ 2.01356000E+00,  1.51904500E-02, -1.61631900E-05,
                       9.07899000E-09, -1.91275000E-12,  2.61244000E+04,
                       8.80500000E+00]),
                NASA([1000.00, 5000.00],
                     [ 4.43677000E+00,  5.37604000E-03, -1.91282000E-06,
                       3.28640000E-10, -2.15700000E-14,  2.56677000E+04,
                      -2.80000000E+00])),
        transport=gas_transport(geom='linear',
                                diam=4.1,
                                well_depth=209.0,
                                rot_relax=2.5))

species(name='C2H4',
        atoms='H:4 C:2',
        thermo=(NASA([300.00, 1000.00],
                     [-8.61490000E-01,  2.79616300E-02, -3.38867700E-05,
                       2.78515200E-08, -9.73788000E-12,  5.57300000E+03,
                       2.42110000E+01]),
                NASA([1000.00, 5000.00],
                     [ 3.52842000E+00,  1.14851800E-02, -4.41839000E-06,
                       7.84460000E-10, -5.26700000E-14,  4.42830000E+03,
                       2.23000000E+00])),
        transport=gas_transport(geom='nonlinear',
                                diam=3.971,
                                well_depth=280.8,
                                rot_relax=1.5))

species(name='C3H6',
        atoms='H:6 C:3',
        thermo=(NASA([300.00, 1000.00],
                     [ 1.45751570E+00,  2.11422630E-02,  4.04680120E-06,
                      -1.63190030E-08,  7.04751530E-12,  1.07402080E+03,
                       1.73994600E+01]),
                NASA([1000.00, 5000.00],
                     [ 6.72139740E+00,  1.49317570E-02, -4.96523530E-06,
                       7.25107530E-10, -3.80014760E-14, -9.24531490E+02,
                      -1.21556170E+01])),
        transport=gas_transport(geom='nonlinear',
                                diam=4.982,
                                well_depth=266.8,
                                rot_relax=1.0))

species(name='CH3OH',
        atoms='H:4 C:1 O:1',
        thermo=(NASA([300.00, 1000.00],
                     [ 2.66012000E+00,  7.34151000E-03,  7.17005000E-06,
                      -8.79319000E-09,  2.39057000E-12, -2.53535000E+04,
                       1.12330000E+01]),
                NASA([1000.00, 5000.00],
                     [ 4.02906000E+00,  9.37659000E-03, -3.05025000E-06,
                       4.35880000E-10, -2.22500000E-14, -2.61579000E+04,
                       2.37800000E+00])),
        transport=gas_transport(geom='nonlinear',
                                diam=3.626,
                                well_depth=481.8,
                                rot_relax=1.0))

species(name='CH3HCO',
        atoms='H:4 C:2 O:1',
        thermo=(NASA([300.00, 1000.00],
                     [ 2.69691100E+00,  1.23342800E-02,  5.67464500E-06,
                      -1.08707000E-08,  3.76482500E-12, -2.14031400E+04,
                       1.25304800E+01]),
                NASA([1000.00, 5000.00],
                     [ 4.25578600E+00,  1.34860300E-02, -4.91834200E-06,
                       8.25150400E-10, -5.26943400E-14, -2.21673500E+04,
                       2.96265800E+00])),
        transport=gas_transport(geom='nonlinear',
                                diam=3.97,
                                well_depth=436.0,
                                rot_relax=2.0))

species(name='AC3H4',
        atoms='H:4 C:3',
        thermo=(NASA([300.00, 1000.00],
                     [ 4.54532100E+00,  4.53206900E-04,  4.16424700E-05,
                      -5.25502300E-08,  2.01293200E-11,  2.12995900E+04,
                       1.77438900E+00]),
                NASA([1000.00, 5000.00],
                     [ 6.32180800E+00,  1.17551300E-02, -4.65467100E-06,
                       8.57135200E-10, -5.93275400E-14,  1.99904100E+04,
                      -1.14058000E+01])),
        transport=gas_transport(geom='linear',
                                diam=4.76,
                                well_depth=252.0,
                                rot_relax=1.0))

species(name='C4H4',
        atoms='H:4 C:4',
        thermo=(NASA([300.00, 1000.00],
                     [ 3.23389300E+00,  1.86563400E-02,  1.27032050E-06,
                      -9.41009600E-09,  2.95611000E-12,  3.30109700E+04,
                       9.92267600E+00]),
                NASA([1000.00, 4000.00],
                     [ 1.06977730E+01,  6.98201400E-03, -6.56774700E-07,
                      -3.88451700E-10,  7.20094600E-14,  3.03480300E+04,
                      -3.12843000E+01])),
        transport=gas_transport(geom='nonlinear',
                                diam=4.92,
                                well_depth=243.0,
                                rot_relax=1.0))

species(name='C4H6',
        atoms='H:6 C:4',
        thermo=(NASA([300.00, 1000.00],
                     [ 1.11078700E+01, -6.30279400E-03,  5.36192000E-05,
                      -5.91451900E-08,  2.12386300E-11,  9.68687700E+03,
                      -2.99286900E+01]),
                NASA([1000.00, 3000.00],
                     [ 9.84386200E+00,  1.54451700E-02, -5.71720000E-06,
                       1.01451600E-09, -6.86559300E-14,  9.07722800E+03,
                      -2.80034300E+01])),
        transport=gas_transport(geom='nonlinear',
                                diam=5.18,
                                well_depth=357.0,
                                rot_relax=1.0))

species(name='C4H2',
        atoms='H:2 C:4',
        thermo=(NASA([300.00, 1000.00],
                     [ 4.00519100E+00,  1.98100000E-02, -9.86587700E-06,
                      -6.63515800E-09,  6.07741300E-12,  5.42406500E+04,
                       1.84573600E+00]),
                NASA([1000.00, 5000.00],
                     [ 9.03140700E+00,  6.04725200E-03, -1.94878800E-06,
                       2.75486300E-10, -1.38560800E-14,  5.29473500E+04,
                      -2.38506700E+01])),
        transport=gas_transport(geom='linear',
                                diam=5.18,
                                well_depth=357.0,
                                rot_relax=1.0))

species(name='C3H8',
        atoms='H:8 C:3',
        thermo=(NASA([300.00, 1000.00],
                     [ 9.33553810E-01,  2.64245790E-02,  6.10597270E-06,
                      -2.19774990E-08,  9.51492530E-12, -1.39585200E+04,
                       1.92016910E+01]),
                NASA([1000.00, 5000.00],
                     [ 7.53413680E+00,  1.88722390E-02, -6.27184910E-06,
                       9.14756490E-10, -4.78380690E-14, -1.64675160E+04,
                      -1.78923490E+01])),
        transport=gas_transport(geom='nonlinear',
                                diam=4.982,
                                well_depth=266.8,
                                rot_relax=1.0))

species(name='BUTYNE',
        atoms='H:6 C:4',
        thermo=(NASA([300.00, 1000.00],
                     [-5.79840300E-01,  4.66657400E-02, -4.88037300E-05,
                       3.10889300E-08, -8.35096900E-12,  1.83816600E+04,
                       2.62640800E+01]),
                NASA([1000.00, 5000.00],
                     [ 8.03870700E+00,  1.63614900E-02, -5.19505900E-06,
                       8.72618400E-10, -5.76172400E-14,  1.62744200E+04,
                      -1.67720500E+01])),
        transport=gas_transport(geom='nonlinear',
                                diam=4.92,
                                well_depth=243.0,
                                rot_relax=1.0))

species(name='C2C4H8',
        atoms='H:8 C:4',
        thermo=(NASA([300.00, 1000.00],
                     [ 2.81612000E+00,  2.14836400E-02,  2.38493400E-05,
                      -4.24540300E-08,  1.75505100E-11, -3.55930900E+03,
                       1.24939600E+01]),
                NASA([1000.00, 5000.00],
                     [ 7.83068200E+00,  2.22358000E-02, -8.17241500E-06,
                       1.44970500E-09, -9.81974300E-14, -5.72222900E+03,
                      -1.71091100E+01])),
        transport=gas_transport(geom='nonlinear',
                                diam=5.349,
                                well_depth=412.3,
                                rot_relax=1.0))

species(name='ACROL',
        atoms='H:4 C:3 O:1',
        thermo=(NASA([300.00, 1000.00],
                     [ 6.01781600E+00, -3.89763700E-03,  5.46823300E-05,
                      -6.50857700E-08,  2.43629000E-11, -1.10602000E+04,
                       6.49903600E-01]),
                NASA([1000.00, 5000.00],
                     [ 6.88034100E+00,  1.36550800E-02, -5.37344200E-06,
                       9.85683900E-10, -6.80474100E-14, -1.23121700E+04,
                      -8.74913100E+00])),
        transport=gas_transport(geom='nonlinear',
                                diam=4.76,
                                well_depth=252.0,
                                rot_relax=1.0))

species(name='PC3H4',
        atoms='H:4 C:3',
        thermo=(NASA([300.00, 1000.00],
                     [ 6.11019900E+00, -6.74163900E-03,  5.32161800E-05,
                      -6.09887200E-08,  2.24879300E-11,  2.04065300E+04,
                      -4.85823200E+00]),
                NASA([1000.00, 5000.00],
                     [ 6.08923100E+00,  1.18664000E-02, -4.66853200E-06,
                       8.55887800E-10, -5.90552500E-14,  1.94666200E+04,
                      -9.35720100E+00])),
        transport=gas_transport(geom='linear',
                                diam=4.76,
                                well_depth=252.0,
                                rot_relax=1.0))

species(name='C4H8',
        atoms='H:8 C:4',
        thermo=(NASA([300.00, 1000.00],
                     [ 1.18113800E+00,  3.08533800E-02,  5.08652400E-06,
                      -2.46548800E-08,  1.11101920E-11, -1.79040000E+03,
                       2.10624700E+01]),
                NASA([1000.00, 5000.00],
                     [ 2.05358400E+00,  3.43505000E-02, -1.58831960E-05,
                       3.30896600E-09, -2.53610400E-13, -2.13972300E+03,
                       1.55432010E+01])),
        transport=gas_transport(geom='nonlinear',
                                diam=5.176,
                                well_depth=357.0,
                                rot_relax=1.0))

species(name='T2C4H8',
        atoms='H:8 C:4',
        thermo=(NASA([300.00, 1000.00],
                     [ 1.25942520E+00,  2.78084240E-02,  8.70139320E-06,
                      -2.44022050E-08,  9.89777100E-12, -2.96477420E+03,
                       2.05011290E+01]),
                NASA([1000.00, 5000.00],
                     [ 8.27976760E-01,  3.58645390E-02, -1.66344980E-05,
                       3.47327590E-09, -2.66573980E-13, -3.05210330E+03,
                       2.13425450E+01])),
        transport=gas_transport(geom='nonlinear',
                                diam=5.176,
                                well_depth=357.0,
                                rot_relax=1.0))

species(name='C6H6',
        atoms='H:6 C:6',
        thermo=(NASA([300.00, 1000.00],
                     [-3.13801200E+00,  4.72310300E-02, -2.96220700E-06,
                      -3.26281900E-08,  1.71869100E-11,  8.89003100E+03,
                       3.65757300E+01]),
                NASA([1000.00, 5000.00],
                     [ 1.29107400E+01,  1.72329600E-02, -5.02421000E-06,
                       5.89349700E-10, -1.94752100E-14,  3.66451100E+03,
                      -5.00269900E+01])),
        transport=gas_transport(geom='nonlinear',
                                diam=5.176,
                                well_depth=357.0,
                                rot_relax=1.0))

species(name='AC5H10',
        atoms='H:10 C:5',
        thermo=(NASA([300.00, 1000.00],
                     [ 7.43603500E-01,  4.35790200E-02, -4.40636400E-07,
                      -2.85538000E-08,  1.43709100E-11, -4.69615000E+03,
                       2.44973800E+01]),
                NASA([1000.00, 5000.00],
                     [ 1.09058400E+01,  2.72089700E-02, -1.00946800E-05,
                       1.80149500E-09, -1.22530400E-13, -8.14548600E+03,
                      -3.09988700E+01])),
        transport=gas_transport(geom='nonlinear',
                                diam=5.42,
                                well_depth=378.8,
                                rot_relax=1.0))

species(name='T2C5H10',
        atoms='H:10 C:5',
        thermo=(NASA([300.00, 1000.00],
                     [-2.98367100E-01,  4.42635000E-02, -9.80452600E-08,
                      -2.90201100E-08,  1.45203800E-11, -5.62435400E+03,
                       2.95692400E+01]),
                NASA([1000.00, 5000.00],
                     [ 9.81194200E+00,  2.82306300E-02, -1.03988200E-05,
                       1.84911300E-09, -1.25505200E-13, -9.07276700E+03,
                      -2.57153100E+01])),
        transport=gas_transport(geom='nonlinear',
                                diam=5.42,
                                well_depth=378.8,
                                rot_relax=1.0))

species(name='C2C5H10',
        atoms='H:10 C:5',
        thermo=(NASA([300.00, 1000.00],
                     [-2.97723200E-01,  4.42588400E-02, -8.62689900E-08,
                      -2.90327200E-08,  1.45252300E-11, -5.02054900E+03,
                       3.02710500E+01]),
                NASA([1000.00, 5000.00],
                     [ 9.81194100E+00,  2.82306000E-02, -1.03988000E-05,
                       1.84910100E-09, -1.25504800E-13, -8.46890200E+03,
                      -2.50108000E+01])),
        transport=gas_transport(geom='nonlinear',
                                diam=5.42,
                                well_depth=378.8,
                                rot_relax=1.0))

species(name='C5H813',
        atoms='H:8 C:5',
        thermo=(NASA([300.00, 1000.00],
                     [-1.75448700E+00,  5.99325100E-02, -4.98699200E-05,
                       2.10660500E-08, -3.00220200E-12,  7.39525500E+03,
                       3.25324500E+01]),
                NASA([1000.00, 5000.00],
                     [ 1.11110700E+01,  2.19044400E-02, -7.95763300E-06,
                       1.40965800E-09, -9.55831700E-14,  3.90574200E+03,
                      -3.34422600E+01])),
        transport=gas_transport(geom='nonlinear',
                                diam=5.29,
                                well_depth=375.6,
                                rot_relax=1.0))

species(name='C',
        atoms='C:1',
        thermo=(NASA([300.00, 1000.00],
                     [ 2.49985800E+00,  8.08600040E-05, -2.69770030E-07,
                       3.04070040E-10, -1.10660020E-13,  8.54588000E+04,
                       4.75300000E+00]),
                NASA([1000.00, 5000.00],
                     [ 2.60209900E+00, -1.78710010E-04,  9.08700090E-08,
                      -1.15000020E-11,  3.30000060E-16,  8.54215000E+04,
                       4.19500000E+00])),
        transport=gas_transport(geom='atom',
                                diam=3.298,
                                well_depth=71.4))

species(name='AC6H12',
        atoms='H:12 C:6',
        thermo=(NASA([300.00, 1000.00],
                     [ 1.03856900E+00,  5.18672200E-02,  1.61121200E-06,
                      -3.69039600E-08,  1.82782400E-11, -7.62701300E+03,
                       2.49830800E+01]),
                NASA([1000.00, 5000.00],
                     [ 1.33206100E+01,  3.27258500E-02, -1.21851000E-05,
                       2.17816900E-09, -1.48246800E-13, -1.18248400E+04,
                      -4.22394900E+01])),
        transport=gas_transport(geom='nonlinear',
                                diam=5.73,
                                well_depth=414.9,
                                rot_relax=1.0))

species(name='CC7H14',
        atoms='H:14 C:7',
        thermo=(NASA([300.00, 1000.00],
                     [-2.34682300E+00,  8.17546700E-02, -3.48051100E-05,
                      -1.48749800E-08,  1.30052800E-11, -1.27029600E+04,
                       3.72291100E+01]),
                NASA([1000.00, 5000.00],
                     [ 1.73890200E+01,  3.70389500E-02, -1.40609500E-05,
                       2.54001800E-09, -1.73990900E-13, -1.87135600E+04,
                      -6.72678200E+01])),
        transport=gas_transport(geom='nonlinear',
                                diam=6.02,
                                well_depth=448.0,
                                rot_relax=1.0))

species(name='AC7H14',
        atoms='H:14 C:7',
        thermo=(NASA([300.00, 1000.00],
                     [-2.20779800E+00,  7.50572400E-02, -1.82343000E-05,
                      -3.05161000E-08,  1.83149400E-11, -1.15065300E+04,
                       3.74271800E+01]),
                NASA([1000.00, 5000.00],
                     [ 1.62570900E+01,  3.82360600E-02, -1.45226100E-05,
                       2.62308300E-09, -1.79646700E-13, -1.73839500E+04,
                      -6.15811700E+01])),
        transport=gas_transport(geom='nonlinear',
                                diam=6.02,
                                well_depth=448.0,
                                rot_relax=1.0))

species(name='BC7H14',
        atoms='H:14 C:7',
        thermo=(NASA([300.00, 1000.00],
                     [-6.98874500E-01,  7.50082400E-02, -3.06010300E-05,
                      -1.23204200E-08,  1.07875800E-11, -1.32375000E+04,
                       3.19109600E+01]),
                NASA([1000.00, 5000.00],
                     [ 1.59583100E+01,  3.77726500E-02, -1.38477000E-05,
                       2.45905700E-09, -1.66814900E-13, -1.83653400E+04,
                      -5.64817800E+01])),
        transport=gas_transport(geom='nonlinear',
                                diam=6.02,
                                well_depth=448.0,
                                rot_relax=1.0))

species(name='AC8H16',
        atoms='H:16 C:8',
        thermo=(NASA([300.00, 1000.00],
                     [ 2.60754780E+00,  6.42825370E-02,  9.25023230E-06,
                      -5.10467080E-08,  2.33165570E-11, -1.35975270E+04,
                       2.15846560E+01]),
                NASA([1000.00, 5000.00],
                     [ 2.08312840E+01,  3.82945130E-02, -1.24178700E-05,
                       1.79575890E-09, -9.37059130E-14, -2.01331410E+04,
                      -7.92400510E+01])),
        transport=gas_transport(geom='nonlinear',
                                diam=6.28,
                                well_depth=482.8,
                                rot_relax=1.0))

species(name='C6H10',
        atoms='H:10 C:6',
        thermo=(NASA([300.00, 1000.00],
                     [-9.49882700E-01,  6.07252000E-02, -3.04145800E-05,
                      -3.58372800E-09,  6.43696700E-12,  7.99476200E+03,
                       3.35743900E+01]),
                NASA([1000.00, 5000.00],
                     [ 1.26569400E+01,  2.82361200E-02, -1.04062500E-05,
                       1.85309200E-09, -1.25921800E-13,  3.91640100E+03,
                      -3.81048600E+01])),
        transport=gas_transport(geom='nonlinear',
                                diam=5.349,
                                well_depth=412.3,
                                rot_relax=1.0))

species(name='AC9H18',
        atoms='H:18 C:9',
        thermo=(NASA([298.15, 1000.00],
                     [-3.42020040E+00,  1.19589870E-01, -1.10756540E-04,
                       7.35506690E-08, -2.42808130E-11, -1.59074300E+04,
                       4.82259800E+01]),
                NASA([1000.00, 5000.00],
                     [ 1.97682490E+01,  5.11338440E-02, -1.93461210E-05,
                       3.34409560E-09, -2.17087800E-13, -2.25991110E+04,
                      -7.18170840E+01])),
        transport=gas_transport(geom='nonlinear',
                                diam=6.64,
                                well_depth=500.8,
                                rot_relax=1.0))

species(name='AC10H20',
        atoms='H:20 C:10',
        thermo=(NASA([300.00, 1000.00],
                     [-3.74971360E+00,  1.32855560E-01, -1.22471820E-04,
                       8.09742990E-08, -2.67184180E-11, -1.87894030E+04,
                       5.13506190E+01]),
                NASA([1000.00, 5000.00],
                     [ 2.21764180E+01,  5.66905930E-02, -2.14423990E-05,
                       3.70582830E-09, -2.40533750E-13, -2.62879840E+04,
                      -8.29538100E+01])),
        transport=gas_transport(geom='nonlinear',
                                diam=6.28,
                                well_depth=482.8,
                                rot_relax=1.0))

species(name='NC10H22',
        atoms='H:22 C:10',
        thermo=(NASA([300.00, 1000.00],
                     [-3.63263150E+00,  1.37973850E-01, -1.26041250E-04,
                       8.48764520E-08, -2.86411160E-11, -3.42001440E+04,
                       5.01377960E+01]),
                NASA([1000.00, 5000.00],
                     [ 2.25762110E+01,  6.14611030E-02, -2.32621620E-05,